fieldwidths_channel: 3
DRAMSim3_DRAM init
Initialized CXL memory with 4 channels
tCXL 50 tRD 5 tWR 11
Init LLC size 12288KB
PAM Threshold: 106GB/s
Init cpu0_L2C size 512KB
Init cpu1_L2C size 512KB
Init cpu2_L2C size 512KB
Init cpu3_L2C size 512KB
Init cpu4_L2C size 512KB
Init cpu5_L2C size 512KB
Init cpu6_L2C size 512KB
Init cpu7_L2C size 512KB
Init cpu8_L2C size 512KB
Init cpu9_L2C size 512KB
Init cpu10_L2C size 512KB
Init cpu11_L2C size 512KB
Init cpu0_L1D size 32KB
Init cpu1_L1D size 32KB
Init cpu2_L1D size 32KB
Init cpu3_L1D size 32KB
Init cpu4_L1D size 32KB
Init cpu5_L1D size 32KB
Init cpu6_L1D size 32KB
Init cpu7_L1D size 32KB
Init cpu8_L1D size 32KB
Init cpu9_L1D size 32KB
Init cpu10_L1D size 32KB
Init cpu11_L1D size 32KB
Init cpu0_STLB size 192KB
Init cpu1_STLB size 192KB
Init cpu2_STLB size 192KB
Init cpu3_STLB size 192KB
Init cpu4_STLB size 192KB
Init cpu5_STLB size 192KB
Init cpu6_STLB size 192KB
Init cpu7_STLB size 192KB
Init cpu8_STLB size 192KB
Init cpu9_STLB size 192KB
Init cpu10_STLB size 192KB
Init cpu11_STLB size 192KB
Init cpu0_L1I size 32KB
Init cpu0_ITLB size 4KB
Init cpu0_DTLB size 4KB
Init cpu1_L1I size 32KB
Init cpu1_ITLB size 4KB
Init cpu1_DTLB size 4KB
Init cpu2_L1I size 32KB
Init cpu2_ITLB size 4KB
Init cpu2_DTLB size 4KB
Init cpu3_L1I size 32KB
Init cpu3_ITLB size 4KB
Init cpu3_DTLB size 4KB
Init cpu4_L1I size 32KB
Init cpu4_ITLB size 4KB
Init cpu4_DTLB size 4KB
Init cpu5_L1I size 32KB
Init cpu5_ITLB size 4KB
Init cpu5_DTLB size 4KB
Init cpu6_L1I size 32KB
Init cpu6_ITLB size 4KB
Init cpu6_DTLB size 4KB
Init cpu7_L1I size 32KB
Init cpu7_ITLB size 4KB
Init cpu7_DTLB size 4KB
Init cpu8_L1I size 32KB
Init cpu8_ITLB size 4KB
Init cpu8_DTLB size 4KB
Init cpu9_L1I size 32KB
Init cpu9_ITLB size 4KB
Init cpu9_DTLB size 4KB
Init cpu10_L1I size 32KB
Init cpu10_ITLB size 4KB
Init cpu10_DTLB size 4KB
Init cpu11_L1I size 32KB
Init cpu11_ITLB size 4KB
Init cpu11_DTLB size 4KB

*** ChampSim Multicore Out-of-Order Simulator ***

Warmup Instructions: 1000000
Simulation Instructions: 200000000
Number of CPUs: 12

VirtualMemory physical capacity: 137437900800 num_ppages: 33554175
VirtualMemory page size: 4096 log2_page_size: 12
starting with L2 parallel access: 1

All CPUs run trace-0
CPU 0 runs /nethome/acho44/coaxial_AE/TRACES/STREAM_TRACES/stream_copy.trace.xz
CPU 1 runs /nethome/acho44/coaxial_AE/TRACES/STREAM_TRACES/stream_copy.trace.xz
CPU 2 runs /nethome/acho44/coaxial_AE/TRACES/STREAM_TRACES/stream_copy.trace.xz
CPU 3 runs /nethome/acho44/coaxial_AE/TRACES/STREAM_TRACES/stream_copy.trace.xz
CPU 4 runs /nethome/acho44/coaxial_AE/TRACES/STREAM_TRACES/stream_copy.trace.xz
CPU 5 runs /nethome/acho44/coaxial_AE/TRACES/STREAM_TRACES/stream_copy.trace.xz
CPU 6 runs /nethome/acho44/coaxial_AE/TRACES/STREAM_TRACES/stream_copy.trace.xz
CPU 7 runs /nethome/acho44/coaxial_AE/TRACES/STREAM_TRACES/stream_copy.trace.xz
CPU 8 runs /nethome/acho44/coaxial_AE/TRACES/STREAM_TRACES/stream_copy.trace.xz
CPU 9 runs /nethome/acho44/coaxial_AE/TRACES/STREAM_TRACES/stream_copy.trace.xz
CPU 10 runs /nethome/acho44/coaxial_AE/TRACES/STREAM_TRACES/stream_copy.trace.xz
CPU 11 runs /nethome/acho44/coaxial_AE/TRACES/STREAM_TRACES/stream_copy.trace.xz
Basic BTB sets: 1024 ways: 8 indirect buffer size: 1536 RAS size: 32
Basic BTB sets: 1024 ways: 8 indirect buffer size: 1536 RAS size: 32
Basic BTB sets: 1024 ways: 8 indirect buffer size: 1536 RAS size: 32
Basic BTB sets: 1024 ways: 8 indirect buffer size: 1536 RAS size: 32
Basic BTB sets: 1024 ways: 8 indirect buffer size: 1536 RAS size: 32
Basic BTB sets: 1024 ways: 8 indirect buffer size: 1536 RAS size: 32
Basic BTB sets: 1024 ways: 8 indirect buffer size: 1536 RAS size: 32
Basic BTB sets: 1024 ways: 8 indirect buffer size: 1536 RAS size: 32
Basic BTB sets: 1024 ways: 8 indirect buffer size: 1536 RAS size: 32
Basic BTB sets: 1024 ways: 8 indirect buffer size: 1536 RAS size: 32
Basic BTB sets: 1024 ways: 8 indirect buffer size: 1536 RAS size: 32
Basic BTB sets: 1024 ways: 8 indirect buffer size: 1536 RAS size: 32
CPU 0 next line instruction prefetcher
CPU 0 next line instruction prefetcher
CPU 0 next line instruction prefetcher
CPU 0 next line instruction prefetcher
CPU 0 next line instruction prefetcher
CPU 0 next line instruction prefetcher
CPU 0 next line instruction prefetcher
CPU 0 next line instruction prefetcher
CPU 0 next line instruction prefetcher
CPU 0 next line instruction prefetcher
CPU 0 next line instruction prefetcher
CPU 0 next line instruction prefetcher
cpu11_L2C IP-based stride prefetcher
cpu10_L2C IP-based stride prefetcher
cpu9_L2C IP-based stride prefetcher
cpu8_L2C IP-based stride prefetcher
cpu7_L2C IP-based stride prefetcher
cpu6_L2C IP-based stride prefetcher
cpu5_L2C IP-based stride prefetcher
cpu4_L2C IP-based stride prefetcher
cpu3_L2C IP-based stride prefetcher
cpu2_L2C IP-based stride prefetcher
cpu1_L2C IP-based stride prefetcher
cpu0_L2C IP-based stride prefetcher
WARNING: The extended signature CACHE::prefetch_line(ip, base_addr, pf_addr, fill_this_level, prefetch_metadata) is deprecated.
WARNING: Use CACHE::prefetch_line(pf_addr, fill_this_level, prefetch_metadata) instead.
L2_PA_ratio set to: 0
L2 Parallel Access switched to 0
L2_PA_ratio set to: 0
L2_PA_ratio set to: 0
L2_PA_ratio set to: 0

Warmup complete CPU 0 instructions: 1000054 cycles: 400107 (Simulation time: 0 hr 0 min 20 sec) 
Warmup complete CPU 1 instructions: 1000054 cycles: 400107 (Simulation time: 0 hr 0 min 20 sec) 
Warmup complete CPU 2 instructions: 1000054 cycles: 400107 (Simulation time: 0 hr 0 min 20 sec) 
Warmup complete CPU 3 instructions: 1000006 cycles: 400107 (Simulation time: 0 hr 0 min 20 sec) 
Warmup complete CPU 4 instructions: 1000014 cycles: 400107 (Simulation time: 0 hr 0 min 20 sec) 
Warmup complete CPU 5 instructions: 1000014 cycles: 400107 (Simulation time: 0 hr 0 min 20 sec) 
Warmup complete CPU 6 instructions: 1000030 cycles: 400107 (Simulation time: 0 hr 0 min 20 sec) 
Warmup complete CPU 7 instructions: 1000038 cycles: 400107 (Simulation time: 0 hr 0 min 20 sec) 
Warmup complete CPU 8 instructions: 1000014 cycles: 400107 (Simulation time: 0 hr 0 min 20 sec) 
Warmup complete CPU 9 instructions: 1000014 cycles: 400107 (Simulation time: 0 hr 0 min 20 sec) 
Warmup complete CPU 10 instructions: 1000014 cycles: 400107 (Simulation time: 0 hr 0 min 20 sec) 
Warmup complete CPU 11 instructions: 1000046 cycles: 400107 (Simulation time: 0 hr 0 min 20 sec) 

TH_L2PA: 106, l2miss_BW: 56, llc_miss_BW: 56
L2_PA_ratio set to: 89
L2 Parallel Access switched to 1
TH_L2PA: 106, l2miss_BW: 57, llc_miss_BW: 57
L2_PA_ratio set to: 85
TH_L2PA: 106, l2miss_BW: 57, llc_miss_BW: 57
L2_PA_ratio set to: 85
TH_L2PA: 106, l2miss_BW: 57, llc_miss_BW: 57
L2_PA_ratio set to: 85
TH_L2PA: 106, l2miss_BW: 59, llc_miss_BW: 59
L2_PA_ratio set to: 79
TH_L2PA: 106, l2miss_BW: 58, llc_miss_BW: 58
L2_PA_ratio set to: 82
TH_L2PA: 106, l2miss_BW: 58, llc_miss_BW: 58
L2_PA_ratio set to: 82
TH_L2PA: 106, l2miss_BW: 57, llc_miss_BW: 57
L2_PA_ratio set to: 85
TH_L2PA: 106, l2miss_BW: 57, llc_miss_BW: 57
L2_PA_ratio set to: 85
TH_L2PA: 106, l2miss_BW: 57, llc_miss_BW: 57
L2_PA_ratio set to: 85
TH_L2PA: 106, l2miss_BW: 56, llc_miss_BW: 56
L2_PA_ratio set to: 89
TH_L2PA: 106, l2miss_BW: 59, llc_miss_BW: 59
L2_PA_ratio set to: 79
TH_L2PA: 106, l2miss_BW: 56, llc_miss_BW: 56
L2_PA_ratio set to: 89
TH_L2PA: 106, l2miss_BW: 57, llc_miss_BW: 57
L2_PA_ratio set to: 85
TH_L2PA: 106, l2miss_BW: 58, llc_miss_BW: 58
L2_PA_ratio set to: 82
TH_L2PA: 106, l2miss_BW: 57, llc_miss_BW: 57
L2_PA_ratio set to: 85
TH_L2PA: 106, l2miss_BW: 58, llc_miss_BW: 58
L2_PA_ratio set to: 82
TH_L2PA: 106, l2miss_BW: 57, llc_miss_BW: 57
L2_PA_ratio set to: 85
TH_L2PA: 106, l2miss_BW: 59, llc_miss_BW: 59
L2_PA_ratio set to: 79
TH_L2PA: 106, l2miss_BW: 59, llc_miss_BW: 59
L2_PA_ratio set to: 79
TH_L2PA: 106, l2miss_BW: 58, llc_miss_BW: 58
L2_PA_ratio set to: 82
TH_L2PA: 106, l2miss_BW: 56, llc_miss_BW: 56
L2_PA_ratio set to: 89
TH_L2PA: 106, l2miss_BW: 56, llc_miss_BW: 56
L2_PA_ratio set to: 89
TH_L2PA: 106, l2miss_BW: 56, llc_miss_BW: 56
L2_PA_ratio set to: 89
TH_L2PA: 106, l2miss_BW: 58, llc_miss_BW: 58
L2_PA_ratio set to: 82
TH_L2PA: 106, l2miss_BW: 57, llc_miss_BW: 57
L2_PA_ratio set to: 85
TH_L2PA: 106, l2miss_BW: 59, llc_miss_BW: 59
L2_PA_ratio set to: 79
TH_L2PA: 106, l2miss_BW: 59, llc_miss_BW: 59
L2_PA_ratio set to: 79
TH_L2PA: 106, l2miss_BW: 60, llc_miss_BW: 60
L2_PA_ratio set to: 76
TH_L2PA: 106, l2miss_BW: 56, llc_miss_BW: 56
L2_PA_ratio set to: 89
TH_L2PA: 106, l2miss_BW: 58, llc_miss_BW: 58
L2_PA_ratio set to: 82
TH_L2PA: 106, l2miss_BW: 55, llc_miss_BW: 55
L2_PA_ratio set to: 92
TH_L2PA: 106, l2miss_BW: 58, llc_miss_BW: 58
L2_PA_ratio set to: 82
TH_L2PA: 106, l2miss_BW: 56, llc_miss_BW: 56
L2_PA_ratio set to: 89
TH_L2PA: 106, l2miss_BW: 56, llc_miss_BW: 56
L2_PA_ratio set to: 89
TH_L2PA: 106, l2miss_BW: 58, llc_miss_BW: 58
L2_PA_ratio set to: 82
TH_L2PA: 106, l2miss_BW: 58, llc_miss_BW: 58
L2_PA_ratio set to: 82
TH_L2PA: 106, l2miss_BW: 56, llc_miss_BW: 56
L2_PA_ratio set to: 89
TH_L2PA: 106, l2miss_BW: 58, llc_miss_BW: 58
L2_PA_ratio set to: 82
TH_L2PA: 106, l2miss_BW: 59, llc_miss_BW: 59
L2_PA_ratio set to: 79
TH_L2PA: 106, l2miss_BW: 57, llc_miss_BW: 57
L2_PA_ratio set to: 85
TH_L2PA: 106, l2miss_BW: 57, llc_miss_BW: 57
L2_PA_ratio set to: 85
TH_L2PA: 106, l2miss_BW: 57, llc_miss_BW: 57
L2_PA_ratio set to: 85
TH_L2PA: 106, l2miss_BW: 59, llc_miss_BW: 59
L2_PA_ratio set to: 79
TH_L2PA: 106, l2miss_BW: 58, llc_miss_BW: 58
L2_PA_ratio set to: 82
TH_L2PA: 106, l2miss_BW: 58, llc_miss_BW: 58
L2_PA_ratio set to: 82
TH_L2PA: 106, l2miss_BW: 59, llc_miss_BW: 59
L2_PA_ratio set to: 79
TH_L2PA: 106, l2miss_BW: 57, llc_miss_BW: 57
L2_PA_ratio set to: 85
TH_L2PA: 106, l2miss_BW: 56, llc_miss_BW: 56
L2_PA_ratio set to: 89
TH_L2PA: 106, l2miss_BW: 57, llc_miss_BW: 57
L2_PA_ratio set to: 85
TH_L2PA: 106, l2miss_BW: 56, llc_miss_BW: 56
L2_PA_ratio set to: 89
TH_L2PA: 106, l2miss_BW: 57, llc_miss_BW: 57
L2_PA_ratio set to: 85
TH_L2PA: 106, l2miss_BW: 59, llc_miss_BW: 59
L2_PA_ratio set to: 79
TH_L2PA: 106, l2miss_BW: 57, llc_miss_BW: 57
L2_PA_ratio set to: 85
TH_L2PA: 106, l2miss_BW: 56, llc_miss_BW: 56
L2_PA_ratio set to: 89
TH_L2PA: 106, l2miss_BW: 59, llc_miss_BW: 59
L2_PA_ratio set to: 79
TH_L2PA: 106, l2miss_BW: 57, llc_miss_BW: 57
L2_PA_ratio set to: 85
TH_L2PA: 106, l2miss_BW: 59, llc_miss_BW: 59
L2_PA_ratio set to: 79
TH_L2PA: 106, l2miss_BW: 59, llc_miss_BW: 59
L2_PA_ratio set to: 79
TH_L2PA: 106, l2miss_BW: 58, llc_miss_BW: 58
L2_PA_ratio set to: 82
TH_L2PA: 106, l2miss_BW: 57, llc_miss_BW: 57
L2_PA_ratio set to: 85
TH_L2PA: 106, l2miss_BW: 56, llc_miss_BW: 56
L2_PA_ratio set to: 89
TH_L2PA: 106, l2miss_BW: 58, llc_miss_BW: 58
L2_PA_ratio set to: 82
TH_L2PA: 106, l2miss_BW: 57, llc_miss_BW: 57
L2_PA_ratio set to: 85
TH_L2PA: 106, l2miss_BW: 58, llc_miss_BW: 58
L2_PA_ratio set to: 82
TH_L2PA: 106, l2miss_BW: 58, llc_miss_BW: 58
L2_PA_ratio set to: 82
TH_L2PA: 106, l2miss_BW: 58, llc_miss_BW: 58
L2_PA_ratio set to: 82
TH_L2PA: 106, l2miss_BW: 58, llc_miss_BW: 58
L2_PA_ratio set to: 82
TH_L2PA: 106, l2miss_BW: 58, llc_miss_BW: 58
L2_PA_ratio set to: 82
TH_L2PA: 106, l2miss_BW: 57, llc_miss_BW: 57
L2_PA_ratio set to: 85
TH_L2PA: 106, l2miss_BW: 57, llc_miss_BW: 57
L2_PA_ratio set to: 85
TH_L2PA: 106, l2miss_BW: 58, llc_miss_BW: 58
L2_PA_ratio set to: 82
TH_L2PA: 106, l2miss_BW: 57, llc_miss_BW: 57
L2_PA_ratio set to: 85
TH_L2PA: 106, l2miss_BW: 58, llc_miss_BW: 58
L2_PA_ratio set to: 82
TH_L2PA: 106, l2miss_BW: 58, llc_miss_BW: 58
L2_PA_ratio set to: 82
TH_L2PA: 106, l2miss_BW: 58, llc_miss_BW: 58
L2_PA_ratio set to: 82
TH_L2PA: 106, l2miss_BW: 57, llc_miss_BW: 57
L2_PA_ratio set to: 85
TH_L2PA: 106, l2miss_BW: 57, llc_miss_BW: 57
L2_PA_ratio set to: 85
TH_L2PA: 106, l2miss_BW: 60, llc_miss_BW: 60
L2_PA_ratio set to: 76
TH_L2PA: 106, l2miss_BW: 57, llc_miss_BW: 57
L2_PA_ratio set to: 85
TH_L2PA: 106, l2miss_BW: 57, llc_miss_BW: 57
L2_PA_ratio set to: 85
TH_L2PA: 106, l2miss_BW: 57, llc_miss_BW: 57
L2_PA_ratio set to: 85
TH_L2PA: 106, l2miss_BW: 57, llc_miss_BW: 57
L2_PA_ratio set to: 85
TH_L2PA: 106, l2miss_BW: 57, llc_miss_BW: 57
L2_PA_ratio set to: 85
TH_L2PA: 106, l2miss_BW: 59, llc_miss_BW: 59
L2_PA_ratio set to: 79
TH_L2PA: 106, l2miss_BW: 57, llc_miss_BW: 57
L2_PA_ratio set to: 85
TH_L2PA: 106, l2miss_BW: 57, llc_miss_BW: 57
L2_PA_ratio set to: 85
TH_L2PA: 106, l2miss_BW: 59, llc_miss_BW: 59
L2_PA_ratio set to: 79
TH_L2PA: 106, l2miss_BW: 57, llc_miss_BW: 57
L2_PA_ratio set to: 85
TH_L2PA: 106, l2miss_BW: 58, llc_miss_BW: 58
L2_PA_ratio set to: 82
TH_L2PA: 106, l2miss_BW: 57, llc_miss_BW: 57
L2_PA_ratio set to: 85
TH_L2PA: 106, l2miss_BW: 57, llc_miss_BW: 57
L2_PA_ratio set to: 85
TH_L2PA: 106, l2miss_BW: 57, llc_miss_BW: 57
L2_PA_ratio set to: 85
TH_L2PA: 106, l2miss_BW: 57, llc_miss_BW: 57
L2_PA_ratio set to: 85
TH_L2PA: 106, l2miss_BW: 57, llc_miss_BW: 57
L2_PA_ratio set to: 85
TH_L2PA: 106, l2miss_BW: 58, llc_miss_BW: 58
L2_PA_ratio set to: 82
TH_L2PA: 106, l2miss_BW: 58, llc_miss_BW: 58
L2_PA_ratio set to: 82
TH_L2PA: 106, l2miss_BW: 58, llc_miss_BW: 58
L2_PA_ratio set to: 82
TH_L2PA: 106, l2miss_BW: 58, llc_miss_BW: 58
L2_PA_ratio set to: 82
TH_L2PA: 106, l2miss_BW: 57, llc_miss_BW: 57
L2_PA_ratio set to: 85
TH_L2PA: 106, l2miss_BW: 58, llc_miss_BW: 58
L2_PA_ratio set to: 82
TH_L2PA: 106, l2miss_BW: 56, llc_miss_BW: 56
L2_PA_ratio set to: 89
TH_L2PA: 106, l2miss_BW: 57, llc_miss_BW: 57
L2_PA_ratio set to: 85
TH_L2PA: 106, l2miss_BW: 58, llc_miss_BW: 58
L2_PA_ratio set to: 82
TH_L2PA: 106, l2miss_BW: 57, llc_miss_BW: 57
L2_PA_ratio set to: 85
TH_L2PA: 106, l2miss_BW: 57, llc_miss_BW: 57
L2_PA_ratio set to: 85
TH_L2PA: 106, l2miss_BW: 58, llc_miss_BW: 58
L2_PA_ratio set to: 82
TH_L2PA: 106, l2miss_BW: 58, llc_miss_BW: 58
L2_PA_ratio set to: 82
TH_L2PA: 106, l2miss_BW: 57, llc_miss_BW: 57
L2_PA_ratio set to: 85
TH_L2PA: 106, l2miss_BW: 57, llc_miss_BW: 57
L2_PA_ratio set to: 85
TH_L2PA: 106, l2miss_BW: 56, llc_miss_BW: 56
L2_PA_ratio set to: 89
TH_L2PA: 106, l2miss_BW: 58, llc_miss_BW: 58
L2_PA_ratio set to: 82
TH_L2PA: 106, l2miss_BW: 57, llc_miss_BW: 57
L2_PA_ratio set to: 85
TH_L2PA: 106, l2miss_BW: 59, llc_miss_BW: 59
L2_PA_ratio set to: 79
TH_L2PA: 106, l2miss_BW: 57, llc_miss_BW: 57
L2_PA_ratio set to: 85
TH_L2PA: 106, l2miss_BW: 57, llc_miss_BW: 57
L2_PA_ratio set to: 85
TH_L2PA: 106, l2miss_BW: 58, llc_miss_BW: 58
L2_PA_ratio set to: 82
TH_L2PA: 106, l2miss_BW: 58, llc_miss_BW: 58
L2_PA_ratio set to: 82
TH_L2PA: 106, l2miss_BW: 58, llc_miss_BW: 58
L2_PA_ratio set to: 82
TH_L2PA: 106, l2miss_BW: 58, llc_miss_BW: 58
L2_PA_ratio set to: 82
TH_L2PA: 106, l2miss_BW: 58, llc_miss_BW: 58
L2_PA_ratio set to: 82
TH_L2PA: 106, l2miss_BW: 58, llc_miss_BW: 58
L2_PA_ratio set to: 82
TH_L2PA: 106, l2miss_BW: 59, llc_miss_BW: 59
L2_PA_ratio set to: 79
TH_L2PA: 106, l2miss_BW: 57, llc_miss_BW: 57
L2_PA_ratio set to: 85
TH_L2PA: 106, l2miss_BW: 57, llc_miss_BW: 57
L2_PA_ratio set to: 85
TH_L2PA: 106, l2miss_BW: 58, llc_miss_BW: 58
L2_PA_ratio set to: 82
TH_L2PA: 106, l2miss_BW: 57, llc_miss_BW: 57
L2_PA_ratio set to: 85
TH_L2PA: 106, l2miss_BW: 58, llc_miss_BW: 58
L2_PA_ratio set to: 82
TH_L2PA: 106, l2miss_BW: 58, llc_miss_BW: 58
L2_PA_ratio set to: 82
TH_L2PA: 106, l2miss_BW: 59, llc_miss_BW: 59
L2_PA_ratio set to: 79
TH_L2PA: 106, l2miss_BW: 59, llc_miss_BW: 59
L2_PA_ratio set to: 79
TH_L2PA: 106, l2miss_BW: 58, llc_miss_BW: 58
L2_PA_ratio set to: 82
TH_L2PA: 106, l2miss_BW: 57, llc_miss_BW: 57
L2_PA_ratio set to: 85
TH_L2PA: 106, l2miss_BW: 57, llc_miss_BW: 57
L2_PA_ratio set to: 85
TH_L2PA: 106, l2miss_BW: 58, llc_miss_BW: 58
L2_PA_ratio set to: 82
TH_L2PA: 106, l2miss_BW: 56, llc_miss_BW: 56
L2_PA_ratio set to: 89
TH_L2PA: 106, l2miss_BW: 56, llc_miss_BW: 56
L2_PA_ratio set to: 89
TH_L2PA: 106, l2miss_BW: 59, llc_miss_BW: 59
L2_PA_ratio set to: 79
TH_L2PA: 106, l2miss_BW: 59, llc_miss_BW: 59
L2_PA_ratio set to: 79
TH_L2PA: 106, l2miss_BW: 57, llc_miss_BW: 57
L2_PA_ratio set to: 85
TH_L2PA: 106, l2miss_BW: 57, llc_miss_BW: 57
L2_PA_ratio set to: 85
TH_L2PA: 106, l2miss_BW: 57, llc_miss_BW: 57
L2_PA_ratio set to: 85
TH_L2PA: 106, l2miss_BW: 59, llc_miss_BW: 59
L2_PA_ratio set to: 79
TH_L2PA: 106, l2miss_BW: 56, llc_miss_BW: 56
L2_PA_ratio set to: 89
TH_L2PA: 106, l2miss_BW: 58, llc_miss_BW: 58
L2_PA_ratio set to: 82
TH_L2PA: 106, l2miss_BW: 57, llc_miss_BW: 57
L2_PA_ratio set to: 85
TH_L2PA: 106, l2miss_BW: 58, llc_miss_BW: 58
L2_PA_ratio set to: 82
TH_L2PA: 106, l2miss_BW: 58, llc_miss_BW: 58
L2_PA_ratio set to: 82
TH_L2PA: 106, l2miss_BW: 56, llc_miss_BW: 56
L2_PA_ratio set to: 89
TH_L2PA: 106, l2miss_BW: 59, llc_miss_BW: 59
L2_PA_ratio set to: 79
TH_L2PA: 106, l2miss_BW: 57, llc_miss_BW: 57
L2_PA_ratio set to: 85
TH_L2PA: 106, l2miss_BW: 59, llc_miss_BW: 59
L2_PA_ratio set to: 79
TH_L2PA: 106, l2miss_BW: 57, llc_miss_BW: 57
L2_PA_ratio set to: 85
TH_L2PA: 106, l2miss_BW: 58, llc_miss_BW: 58
L2_PA_ratio set to: 82
TH_L2PA: 106, l2miss_BW: 58, llc_miss_BW: 58
L2_PA_ratio set to: 82
TH_L2PA: 106, l2miss_BW: 57, llc_miss_BW: 57
L2_PA_ratio set to: 85
TH_L2PA: 106, l2miss_BW: 58, llc_miss_BW: 58
L2_PA_ratio set to: 82
TH_L2PA: 106, l2miss_BW: 58, llc_miss_BW: 58
L2_PA_ratio set to: 82
TH_L2PA: 106, l2miss_BW: 57, llc_miss_BW: 57
L2_PA_ratio set to: 85
TH_L2PA: 106, l2miss_BW: 57, llc_miss_BW: 57
L2_PA_ratio set to: 85
TH_L2PA: 106, l2miss_BW: 60, llc_miss_BW: 60
L2_PA_ratio set to: 76
TH_L2PA: 106, l2miss_BW: 55, llc_miss_BW: 55
L2_PA_ratio set to: 92
TH_L2PA: 106, l2miss_BW: 56, llc_miss_BW: 56
L2_PA_ratio set to: 89
TH_L2PA: 106, l2miss_BW: 58, llc_miss_BW: 58
L2_PA_ratio set to: 82
TH_L2PA: 106, l2miss_BW: 58, llc_miss_BW: 58
L2_PA_ratio set to: 82
TH_L2PA: 106, l2miss_BW: 60, llc_miss_BW: 60
L2_PA_ratio set to: 76
TH_L2PA: 106, l2miss_BW: 57, llc_miss_BW: 57
L2_PA_ratio set to: 85
TH_L2PA: 106, l2miss_BW: 56, llc_miss_BW: 56
L2_PA_ratio set to: 89
TH_L2PA: 106, l2miss_BW: 57, llc_miss_BW: 57
L2_PA_ratio set to: 85
TH_L2PA: 106, l2miss_BW: 60, llc_miss_BW: 60
L2_PA_ratio set to: 76
TH_L2PA: 106, l2miss_BW: 57, llc_miss_BW: 57
L2_PA_ratio set to: 85
TH_L2PA: 106, l2miss_BW: 58, llc_miss_BW: 58
L2_PA_ratio set to: 82
TH_L2PA: 106, l2miss_BW: 59, llc_miss_BW: 59
L2_PA_ratio set to: 79
TH_L2PA: 106, l2miss_BW: 56, llc_miss_BW: 56
L2_PA_ratio set to: 89
TH_L2PA: 106, l2miss_BW: 58, llc_miss_BW: 58
L2_PA_ratio set to: 82
TH_L2PA: 106, l2miss_BW: 58, llc_miss_BW: 58
L2_PA_ratio set to: 82
TH_L2PA: 106, l2miss_BW: 58, llc_miss_BW: 58
L2_PA_ratio set to: 82
TH_L2PA: 106, l2miss_BW: 57, llc_miss_BW: 57
L2_PA_ratio set to: 85
TH_L2PA: 106, l2miss_BW: 57, llc_miss_BW: 57
L2_PA_ratio set to: 85
TH_L2PA: 106, l2miss_BW: 59, llc_miss_BW: 59
L2_PA_ratio set to: 79
TH_L2PA: 106, l2miss_BW: 58, llc_miss_BW: 58
L2_PA_ratio set to: 82
TH_L2PA: 106, l2miss_BW: 55, llc_miss_BW: 55
L2_PA_ratio set to: 92
TH_L2PA: 106, l2miss_BW: 59, llc_miss_BW: 59
L2_PA_ratio set to: 79
TH_L2PA: 106, l2miss_BW: 56, llc_miss_BW: 56
L2_PA_ratio set to: 89
TH_L2PA: 106, l2miss_BW: 58, llc_miss_BW: 58
L2_PA_ratio set to: 82
TH_L2PA: 106, l2miss_BW: 58, llc_miss_BW: 58
L2_PA_ratio set to: 82
TH_L2PA: 106, l2miss_BW: 58, llc_miss_BW: 58
L2_PA_ratio set to: 82
TH_L2PA: 106, l2miss_BW: 57, llc_miss_BW: 57
L2_PA_ratio set to: 85
TH_L2PA: 106, l2miss_BW: 56, llc_miss_BW: 56
L2_PA_ratio set to: 89
TH_L2PA: 106, l2miss_BW: 56, llc_miss_BW: 56
L2_PA_ratio set to: 89
TH_L2PA: 106, l2miss_BW: 58, llc_miss_BW: 58
L2_PA_ratio set to: 82
TH_L2PA: 106, l2miss_BW: 60, llc_miss_BW: 60
L2_PA_ratio set to: 76
TH_L2PA: 106, l2miss_BW: 58, llc_miss_BW: 58
L2_PA_ratio set to: 82
TH_L2PA: 106, l2miss_BW: 57, llc_miss_BW: 57
L2_PA_ratio set to: 85
Heartbeat CPU 1 instructions: 10000007 cycles: 19898907 heartbeat IPC: 0.502541 cumulative IPC: 0.461564 (Simulation time: 0 hr 17 min 21 sec) 
PAM Allow Rate: 85%
TH_L2PA: 106, l2miss_BW: 58, llc_miss_BW: 58
L2_PA_ratio set to: 82
Heartbeat CPU 5 instructions: 10000007 cycles: 19985841 heartbeat IPC: 0.500355 cumulative IPC: 0.459518 (Simulation time: 0 hr 17 min 25 sec) 
PAM Allow Rate: 82%
Heartbeat CPU 2 instructions: 10000007 cycles: 19989413 heartbeat IPC: 0.500265 cumulative IPC: 0.459432 (Simulation time: 0 hr 17 min 26 sec) 
PAM Allow Rate: 82%
TH_L2PA: 106, l2miss_BW: 56, llc_miss_BW: 56
L2_PA_ratio set to: 89
Heartbeat CPU 0 instructions: 10000007 cycles: 20046740 heartbeat IPC: 0.498835 cumulative IPC: 0.458091 (Simulation time: 0 hr 17 min 29 sec) 
PAM Allow Rate: 89%
Heartbeat CPU 6 instructions: 10000007 cycles: 20060898 heartbeat IPC: 0.498483 cumulative IPC: 0.457763 (Simulation time: 0 hr 17 min 29 sec) 
PAM Allow Rate: 89%
Heartbeat CPU 3 instructions: 10000007 cycles: 20085540 heartbeat IPC: 0.497871 cumulative IPC: 0.457191 (Simulation time: 0 hr 17 min 31 sec) 
PAM Allow Rate: 89%
Heartbeat CPU 4 instructions: 10000007 cycles: 20086689 heartbeat IPC: 0.497842 cumulative IPC: 0.457164 (Simulation time: 0 hr 17 min 31 sec) 
PAM Allow Rate: 89%
TH_L2PA: 106, l2miss_BW: 57, llc_miss_BW: 57
L2_PA_ratio set to: 85
Heartbeat CPU 9 instructions: 10000007 cycles: 20138510 heartbeat IPC: 0.496561 cumulative IPC: 0.455964 (Simulation time: 0 hr 17 min 33 sec) 
PAM Allow Rate: 85%
Heartbeat CPU 10 instructions: 10000007 cycles: 20184907 heartbeat IPC: 0.49542 cumulative IPC: 0.454894 (Simulation time: 0 hr 17 min 36 sec) 
PAM Allow Rate: 85%
TH_L2PA: 106, l2miss_BW: 58, llc_miss_BW: 58
L2_PA_ratio set to: 82
Heartbeat CPU 7 instructions: 10000007 cycles: 20206309 heartbeat IPC: 0.494895 cumulative IPC: 0.454402 (Simulation time: 0 hr 17 min 37 sec) 
PAM Allow Rate: 82%
Heartbeat CPU 8 instructions: 10000007 cycles: 20212162 heartbeat IPC: 0.494752 cumulative IPC: 0.454269 (Simulation time: 0 hr 17 min 37 sec) 
PAM Allow Rate: 82%
TH_L2PA: 106, l2miss_BW: 58, llc_miss_BW: 58
L2_PA_ratio set to: 82
TH_L2PA: 106, l2miss_BW: 58, llc_miss_BW: 58
L2_PA_ratio set to: 82
Heartbeat CPU 11 instructions: 10000007 cycles: 20414345 heartbeat IPC: 0.489852 cumulative IPC: 0.449678 (Simulation time: 0 hr 17 min 48 sec) 
PAM Allow Rate: 82%
TH_L2PA: 106, l2miss_BW: 57, llc_miss_BW: 57
L2_PA_ratio set to: 85
TH_L2PA: 106, l2miss_BW: 57, llc_miss_BW: 57
L2_PA_ratio set to: 85
TH_L2PA: 106, l2miss_BW: 56, llc_miss_BW: 56
L2_PA_ratio set to: 89
TH_L2PA: 106, l2miss_BW: 57, llc_miss_BW: 57
L2_PA_ratio set to: 85
TH_L2PA: 106, l2miss_BW: 56, llc_miss_BW: 56
L2_PA_ratio set to: 89
TH_L2PA: 106, l2miss_BW: 57, llc_miss_BW: 57
L2_PA_ratio set to: 85
TH_L2PA: 106, l2miss_BW: 58, llc_miss_BW: 58
L2_PA_ratio set to: 82
TH_L2PA: 106, l2miss_BW: 58, llc_miss_BW: 58
L2_PA_ratio set to: 82
TH_L2PA: 106, l2miss_BW: 58, llc_miss_BW: 58
L2_PA_ratio set to: 82
TH_L2PA: 106, l2miss_BW: 56, llc_miss_BW: 56
L2_PA_ratio set to: 89
TH_L2PA: 106, l2miss_BW: 58, llc_miss_BW: 58
L2_PA_ratio set to: 82
TH_L2PA: 106, l2miss_BW: 57, llc_miss_BW: 57
L2_PA_ratio set to: 85
TH_L2PA: 106, l2miss_BW: 58, llc_miss_BW: 58
L2_PA_ratio set to: 82
TH_L2PA: 106, l2miss_BW: 56, llc_miss_BW: 56
L2_PA_ratio set to: 89
TH_L2PA: 106, l2miss_BW: 58, llc_miss_BW: 58
L2_PA_ratio set to: 82
TH_L2PA: 106, l2miss_BW: 56, llc_miss_BW: 56
L2_PA_ratio set to: 89
TH_L2PA: 106, l2miss_BW: 57, llc_miss_BW: 57
L2_PA_ratio set to: 85
TH_L2PA: 106, l2miss_BW: 58, llc_miss_BW: 58
L2_PA_ratio set to: 82
TH_L2PA: 106, l2miss_BW: 59, llc_miss_BW: 59
L2_PA_ratio set to: 79
TH_L2PA: 106, l2miss_BW: 57, llc_miss_BW: 57
L2_PA_ratio set to: 85
TH_L2PA: 106, l2miss_BW: 58, llc_miss_BW: 58
L2_PA_ratio set to: 82
TH_L2PA: 106, l2miss_BW: 56, llc_miss_BW: 56
L2_PA_ratio set to: 89
TH_L2PA: 106, l2miss_BW: 56, llc_miss_BW: 56
L2_PA_ratio set to: 89
TH_L2PA: 106, l2miss_BW: 58, llc_miss_BW: 58
L2_PA_ratio set to: 82
TH_L2PA: 106, l2miss_BW: 60, llc_miss_BW: 60
L2_PA_ratio set to: 76
TH_L2PA: 106, l2miss_BW: 58, llc_miss_BW: 58
L2_PA_ratio set to: 82
TH_L2PA: 106, l2miss_BW: 58, llc_miss_BW: 58
L2_PA_ratio set to: 82
TH_L2PA: 106, l2miss_BW: 56, llc_miss_BW: 56
L2_PA_ratio set to: 89
TH_L2PA: 106, l2miss_BW: 58, llc_miss_BW: 58
L2_PA_ratio set to: 82
TH_L2PA: 106, l2miss_BW: 56, llc_miss_BW: 56
L2_PA_ratio set to: 89
TH_L2PA: 106, l2miss_BW: 56, llc_miss_BW: 56
L2_PA_ratio set to: 89
TH_L2PA: 106, l2miss_BW: 57, llc_miss_BW: 57
L2_PA_ratio set to: 85
TH_L2PA: 106, l2miss_BW: 58, llc_miss_BW: 58
L2_PA_ratio set to: 82
TH_L2PA: 106, l2miss_BW: 58, llc_miss_BW: 58
L2_PA_ratio set to: 82
TH_L2PA: 106, l2miss_BW: 59, llc_miss_BW: 59
L2_PA_ratio set to: 79
TH_L2PA: 106, l2miss_BW: 55, llc_miss_BW: 55
L2_PA_ratio set to: 92
TH_L2PA: 106, l2miss_BW: 59, llc_miss_BW: 59
L2_PA_ratio set to: 79
TH_L2PA: 106, l2miss_BW: 56, llc_miss_BW: 56
L2_PA_ratio set to: 89
TH_L2PA: 106, l2miss_BW: 57, llc_miss_BW: 57
L2_PA_ratio set to: 85
TH_L2PA: 106, l2miss_BW: 60, llc_miss_BW: 60
L2_PA_ratio set to: 76
TH_L2PA: 106, l2miss_BW: 56, llc_miss_BW: 56
L2_PA_ratio set to: 89
TH_L2PA: 106, l2miss_BW: 57, llc_miss_BW: 57
L2_PA_ratio set to: 85
TH_L2PA: 106, l2miss_BW: 58, llc_miss_BW: 58
L2_PA_ratio set to: 82
TH_L2PA: 106, l2miss_BW: 57, llc_miss_BW: 57
L2_PA_ratio set to: 85
TH_L2PA: 106, l2miss_BW: 58, llc_miss_BW: 58
L2_PA_ratio set to: 82
TH_L2PA: 106, l2miss_BW: 60, llc_miss_BW: 60
L2_PA_ratio set to: 76
TH_L2PA: 106, l2miss_BW: 56, llc_miss_BW: 56
L2_PA_ratio set to: 89
TH_L2PA: 106, l2miss_BW: 55, llc_miss_BW: 55
L2_PA_ratio set to: 92
TH_L2PA: 106, l2miss_BW: 58, llc_miss_BW: 58
L2_PA_ratio set to: 82
TH_L2PA: 106, l2miss_BW: 58, llc_miss_BW: 58
L2_PA_ratio set to: 82
TH_L2PA: 106, l2miss_BW: 58, llc_miss_BW: 58
L2_PA_ratio set to: 82
TH_L2PA: 106, l2miss_BW: 58, llc_miss_BW: 58
L2_PA_ratio set to: 82
TH_L2PA: 106, l2miss_BW: 57, llc_miss_BW: 57
L2_PA_ratio set to: 85
TH_L2PA: 106, l2miss_BW: 57, llc_miss_BW: 57
L2_PA_ratio set to: 85
TH_L2PA: 106, l2miss_BW: 58, llc_miss_BW: 58
L2_PA_ratio set to: 82
TH_L2PA: 106, l2miss_BW: 61, llc_miss_BW: 61
L2_PA_ratio set to: 73
TH_L2PA: 106, l2miss_BW: 59, llc_miss_BW: 59
L2_PA_ratio set to: 79
TH_L2PA: 106, l2miss_BW: 58, llc_miss_BW: 58
L2_PA_ratio set to: 82
TH_L2PA: 106, l2miss_BW: 58, llc_miss_BW: 58
L2_PA_ratio set to: 82
TH_L2PA: 106, l2miss_BW: 55, llc_miss_BW: 55
L2_PA_ratio set to: 92
TH_L2PA: 106, l2miss_BW: 56, llc_miss_BW: 56
L2_PA_ratio set to: 89
TH_L2PA: 106, l2miss_BW: 58, llc_miss_BW: 58
L2_PA_ratio set to: 82
TH_L2PA: 106, l2miss_BW: 58, llc_miss_BW: 58
L2_PA_ratio set to: 82
TH_L2PA: 106, l2miss_BW: 59, llc_miss_BW: 59
L2_PA_ratio set to: 79
TH_L2PA: 106, l2miss_BW: 57, llc_miss_BW: 57
L2_PA_ratio set to: 85
TH_L2PA: 106, l2miss_BW: 57, llc_miss_BW: 57
L2_PA_ratio set to: 85
TH_L2PA: 106, l2miss_BW: 58, llc_miss_BW: 58
L2_PA_ratio set to: 82
TH_L2PA: 106, l2miss_BW: 58, llc_miss_BW: 58
L2_PA_ratio set to: 82
TH_L2PA: 106, l2miss_BW: 58, llc_miss_BW: 58
L2_PA_ratio set to: 82
TH_L2PA: 106, l2miss_BW: 57, llc_miss_BW: 57
L2_PA_ratio set to: 85
TH_L2PA: 106, l2miss_BW: 59, llc_miss_BW: 59
L2_PA_ratio set to: 79
TH_L2PA: 106, l2miss_BW: 57, llc_miss_BW: 57
L2_PA_ratio set to: 85
TH_L2PA: 106, l2miss_BW: 58, llc_miss_BW: 58
L2_PA_ratio set to: 82
TH_L2PA: 106, l2miss_BW: 56, llc_miss_BW: 56
L2_PA_ratio set to: 89
TH_L2PA: 106, l2miss_BW: 57, llc_miss_BW: 57
L2_PA_ratio set to: 85
TH_L2PA: 106, l2miss_BW: 56, llc_miss_BW: 56
L2_PA_ratio set to: 89
TH_L2PA: 106, l2miss_BW: 58, llc_miss_BW: 58
L2_PA_ratio set to: 82
TH_L2PA: 106, l2miss_BW: 58, llc_miss_BW: 58
L2_PA_ratio set to: 82
TH_L2PA: 106, l2miss_BW: 59, llc_miss_BW: 59
L2_PA_ratio set to: 79
TH_L2PA: 106, l2miss_BW: 58, llc_miss_BW: 58
L2_PA_ratio set to: 82
TH_L2PA: 106, l2miss_BW: 57, llc_miss_BW: 57
L2_PA_ratio set to: 85
TH_L2PA: 106, l2miss_BW: 59, llc_miss_BW: 59
L2_PA_ratio set to: 79
TH_L2PA: 106, l2miss_BW: 60, llc_miss_BW: 60
L2_PA_ratio set to: 76
TH_L2PA: 106, l2miss_BW: 58, llc_miss_BW: 58
L2_PA_ratio set to: 82
TH_L2PA: 106, l2miss_BW: 56, llc_miss_BW: 56
L2_PA_ratio set to: 89
TH_L2PA: 106, l2miss_BW: 56, llc_miss_BW: 56
L2_PA_ratio set to: 89
TH_L2PA: 106, l2miss_BW: 57, llc_miss_BW: 57
L2_PA_ratio set to: 85
TH_L2PA: 106, l2miss_BW: 56, llc_miss_BW: 56
L2_PA_ratio set to: 89
TH_L2PA: 106, l2miss_BW: 58, llc_miss_BW: 58
L2_PA_ratio set to: 82
TH_L2PA: 106, l2miss_BW: 59, llc_miss_BW: 59
L2_PA_ratio set to: 79
TH_L2PA: 106, l2miss_BW: 58, llc_miss_BW: 58
L2_PA_ratio set to: 82
TH_L2PA: 106, l2miss_BW: 57, llc_miss_BW: 57
L2_PA_ratio set to: 85
TH_L2PA: 106, l2miss_BW: 60, llc_miss_BW: 60
L2_PA_ratio set to: 76
TH_L2PA: 106, l2miss_BW: 60, llc_miss_BW: 60
L2_PA_ratio set to: 76
TH_L2PA: 106, l2miss_BW: 56, llc_miss_BW: 56
L2_PA_ratio set to: 89
TH_L2PA: 106, l2miss_BW: 57, llc_miss_BW: 57
L2_PA_ratio set to: 85
TH_L2PA: 106, l2miss_BW: 57, llc_miss_BW: 57
L2_PA_ratio set to: 85
TH_L2PA: 106, l2miss_BW: 57, llc_miss_BW: 57
L2_PA_ratio set to: 85
TH_L2PA: 106, l2miss_BW: 56, llc_miss_BW: 56
L2_PA_ratio set to: 89
TH_L2PA: 106, l2miss_BW: 57, llc_miss_BW: 57
L2_PA_ratio set to: 85
TH_L2PA: 106, l2miss_BW: 57, llc_miss_BW: 57
L2_PA_ratio set to: 85
TH_L2PA: 106, l2miss_BW: 58, llc_miss_BW: 58
L2_PA_ratio set to: 82
TH_L2PA: 106, l2miss_BW: 61, llc_miss_BW: 60
L2_PA_ratio set to: 75
TH_L2PA: 106, l2miss_BW: 58, llc_miss_BW: 58
L2_PA_ratio set to: 82
TH_L2PA: 106, l2miss_BW: 59, llc_miss_BW: 59
L2_PA_ratio set to: 79
TH_L2PA: 106, l2miss_BW: 56, llc_miss_BW: 56
L2_PA_ratio set to: 89
TH_L2PA: 106, l2miss_BW: 56, llc_miss_BW: 56
L2_PA_ratio set to: 89
TH_L2PA: 106, l2miss_BW: 57, llc_miss_BW: 57
L2_PA_ratio set to: 85
TH_L2PA: 106, l2miss_BW: 57, llc_miss_BW: 57
L2_PA_ratio set to: 85
TH_L2PA: 106, l2miss_BW: 58, llc_miss_BW: 58
L2_PA_ratio set to: 82
TH_L2PA: 106, l2miss_BW: 58, llc_miss_BW: 58
L2_PA_ratio set to: 82
TH_L2PA: 106, l2miss_BW: 57, llc_miss_BW: 57
L2_PA_ratio set to: 85
TH_L2PA: 106, l2miss_BW: 59, llc_miss_BW: 59
L2_PA_ratio set to: 79
TH_L2PA: 106, l2miss_BW: 56, llc_miss_BW: 56
L2_PA_ratio set to: 89
TH_L2PA: 106, l2miss_BW: 57, llc_miss_BW: 57
L2_PA_ratio set to: 85
TH_L2PA: 106, l2miss_BW: 57, llc_miss_BW: 57
L2_PA_ratio set to: 85
TH_L2PA: 106, l2miss_BW: 57, llc_miss_BW: 57
L2_PA_ratio set to: 85
TH_L2PA: 106, l2miss_BW: 60, llc_miss_BW: 60
L2_PA_ratio set to: 76
TH_L2PA: 106, l2miss_BW: 60, llc_miss_BW: 60
L2_PA_ratio set to: 76
TH_L2PA: 106, l2miss_BW: 56, llc_miss_BW: 56
L2_PA_ratio set to: 89
TH_L2PA: 106, l2miss_BW: 55, llc_miss_BW: 55
L2_PA_ratio set to: 92
TH_L2PA: 106, l2miss_BW: 58, llc_miss_BW: 58
L2_PA_ratio set to: 82
TH_L2PA: 106, l2miss_BW: 57, llc_miss_BW: 57
L2_PA_ratio set to: 85
TH_L2PA: 106, l2miss_BW: 56, llc_miss_BW: 56
L2_PA_ratio set to: 89
TH_L2PA: 106, l2miss_BW: 58, llc_miss_BW: 58
L2_PA_ratio set to: 82
TH_L2PA: 106, l2miss_BW: 57, llc_miss_BW: 57
L2_PA_ratio set to: 85
TH_L2PA: 106, l2miss_BW: 57, llc_miss_BW: 57
L2_PA_ratio set to: 85
TH_L2PA: 106, l2miss_BW: 57, llc_miss_BW: 57
L2_PA_ratio set to: 85
TH_L2PA: 106, l2miss_BW: 57, llc_miss_BW: 57
L2_PA_ratio set to: 85
TH_L2PA: 106, l2miss_BW: 56, llc_miss_BW: 56
L2_PA_ratio set to: 89
TH_L2PA: 106, l2miss_BW: 57, llc_miss_BW: 57
L2_PA_ratio set to: 85
TH_L2PA: 106, l2miss_BW: 59, llc_miss_BW: 59
L2_PA_ratio set to: 79
TH_L2PA: 106, l2miss_BW: 57, llc_miss_BW: 57
L2_PA_ratio set to: 85
TH_L2PA: 106, l2miss_BW: 59, llc_miss_BW: 59
L2_PA_ratio set to: 79
TH_L2PA: 106, l2miss_BW: 57, llc_miss_BW: 57
L2_PA_ratio set to: 85
TH_L2PA: 106, l2miss_BW: 57, llc_miss_BW: 57
L2_PA_ratio set to: 85
TH_L2PA: 106, l2miss_BW: 56, llc_miss_BW: 56
L2_PA_ratio set to: 89
TH_L2PA: 106, l2miss_BW: 59, llc_miss_BW: 59
L2_PA_ratio set to: 79
TH_L2PA: 106, l2miss_BW: 59, llc_miss_BW: 59
L2_PA_ratio set to: 79
TH_L2PA: 106, l2miss_BW: 57, llc_miss_BW: 57
L2_PA_ratio set to: 85
TH_L2PA: 106, l2miss_BW: 58, llc_miss_BW: 58
L2_PA_ratio set to: 82
TH_L2PA: 106, l2miss_BW: 58, llc_miss_BW: 58
L2_PA_ratio set to: 82
TH_L2PA: 106, l2miss_BW: 58, llc_miss_BW: 58
L2_PA_ratio set to: 82
TH_L2PA: 106, l2miss_BW: 59, llc_miss_BW: 59
L2_PA_ratio set to: 79
TH_L2PA: 106, l2miss_BW: 57, llc_miss_BW: 57
L2_PA_ratio set to: 85
TH_L2PA: 106, l2miss_BW: 57, llc_miss_BW: 57
L2_PA_ratio set to: 85
TH_L2PA: 106, l2miss_BW: 57, llc_miss_BW: 57
L2_PA_ratio set to: 85
TH_L2PA: 106, l2miss_BW: 56, llc_miss_BW: 56
L2_PA_ratio set to: 89
TH_L2PA: 106, l2miss_BW: 59, llc_miss_BW: 59
L2_PA_ratio set to: 79
TH_L2PA: 106, l2miss_BW: 59, llc_miss_BW: 59
L2_PA_ratio set to: 79
TH_L2PA: 106, l2miss_BW: 57, llc_miss_BW: 57
L2_PA_ratio set to: 85
TH_L2PA: 106, l2miss_BW: 56, llc_miss_BW: 56
L2_PA_ratio set to: 89
TH_L2PA: 106, l2miss_BW: 56, llc_miss_BW: 56
L2_PA_ratio set to: 89
TH_L2PA: 106, l2miss_BW: 58, llc_miss_BW: 58
L2_PA_ratio set to: 82
TH_L2PA: 106, l2miss_BW: 57, llc_miss_BW: 57
L2_PA_ratio set to: 85
TH_L2PA: 106, l2miss_BW: 58, llc_miss_BW: 58
L2_PA_ratio set to: 82
TH_L2PA: 106, l2miss_BW: 57, llc_miss_BW: 57
L2_PA_ratio set to: 85
TH_L2PA: 106, l2miss_BW: 57, llc_miss_BW: 57
L2_PA_ratio set to: 85
TH_L2PA: 106, l2miss_BW: 58, llc_miss_BW: 58
L2_PA_ratio set to: 82
TH_L2PA: 106, l2miss_BW: 57, llc_miss_BW: 57
L2_PA_ratio set to: 85
TH_L2PA: 106, l2miss_BW: 57, llc_miss_BW: 57
L2_PA_ratio set to: 85
TH_L2PA: 106, l2miss_BW: 58, llc_miss_BW: 58
L2_PA_ratio set to: 82
TH_L2PA: 106, l2miss_BW: 59, llc_miss_BW: 59
L2_PA_ratio set to: 79
TH_L2PA: 106, l2miss_BW: 56, llc_miss_BW: 56
L2_PA_ratio set to: 89
TH_L2PA: 106, l2miss_BW: 57, llc_miss_BW: 57
L2_PA_ratio set to: 85
TH_L2PA: 106, l2miss_BW: 57, llc_miss_BW: 57
L2_PA_ratio set to: 85
TH_L2PA: 106, l2miss_BW: 60, llc_miss_BW: 60
L2_PA_ratio set to: 76
TH_L2PA: 106, l2miss_BW: 59, llc_miss_BW: 59
L2_PA_ratio set to: 79
TH_L2PA: 106, l2miss_BW: 58, llc_miss_BW: 58
L2_PA_ratio set to: 82
TH_L2PA: 106, l2miss_BW: 55, llc_miss_BW: 55
L2_PA_ratio set to: 92
TH_L2PA: 106, l2miss_BW: 55, llc_miss_BW: 55
L2_PA_ratio set to: 92
TH_L2PA: 106, l2miss_BW: 59, llc_miss_BW: 59
L2_PA_ratio set to: 79
TH_L2PA: 106, l2miss_BW: 58, llc_miss_BW: 58
L2_PA_ratio set to: 82
TH_L2PA: 106, l2miss_BW: 56, llc_miss_BW: 56
L2_PA_ratio set to: 89
TH_L2PA: 106, l2miss_BW: 58, llc_miss_BW: 58
L2_PA_ratio set to: 82
TH_L2PA: 106, l2miss_BW: 56, llc_miss_BW: 56
L2_PA_ratio set to: 89
TH_L2PA: 106, l2miss_BW: 56, llc_miss_BW: 56
L2_PA_ratio set to: 89
TH_L2PA: 106, l2miss_BW: 56, llc_miss_BW: 56
L2_PA_ratio set to: 89
TH_L2PA: 106, l2miss_BW: 60, llc_miss_BW: 60
L2_PA_ratio set to: 76
TH_L2PA: 106, l2miss_BW: 57, llc_miss_BW: 57
L2_PA_ratio set to: 85
TH_L2PA: 106, l2miss_BW: 59, llc_miss_BW: 59
L2_PA_ratio set to: 79
TH_L2PA: 106, l2miss_BW: 58, llc_miss_BW: 58
L2_PA_ratio set to: 82
TH_L2PA: 106, l2miss_BW: 58, llc_miss_BW: 58
L2_PA_ratio set to: 82
TH_L2PA: 106, l2miss_BW: 57, llc_miss_BW: 57
L2_PA_ratio set to: 85
TH_L2PA: 106, l2miss_BW: 58, llc_miss_BW: 58
L2_PA_ratio set to: 82
TH_L2PA: 106, l2miss_BW: 56, llc_miss_BW: 56
L2_PA_ratio set to: 89
TH_L2PA: 106, l2miss_BW: 58, llc_miss_BW: 58
L2_PA_ratio set to: 82
TH_L2PA: 106, l2miss_BW: 59, llc_miss_BW: 59
L2_PA_ratio set to: 79
TH_L2PA: 106, l2miss_BW: 60, llc_miss_BW: 60
L2_PA_ratio set to: 76
TH_L2PA: 106, l2miss_BW: 56, llc_miss_BW: 56
L2_PA_ratio set to: 89
TH_L2PA: 106, l2miss_BW: 59, llc_miss_BW: 59
L2_PA_ratio set to: 79
TH_L2PA: 106, l2miss_BW: 57, llc_miss_BW: 57
L2_PA_ratio set to: 85
TH_L2PA: 106, l2miss_BW: 57, llc_miss_BW: 57
L2_PA_ratio set to: 85
TH_L2PA: 106, l2miss_BW: 57, llc_miss_BW: 57
L2_PA_ratio set to: 85
TH_L2PA: 106, l2miss_BW: 60, llc_miss_BW: 60
L2_PA_ratio set to: 76
TH_L2PA: 106, l2miss_BW: 57, llc_miss_BW: 57
L2_PA_ratio set to: 85
TH_L2PA: 106, l2miss_BW: 59, llc_miss_BW: 59
L2_PA_ratio set to: 79
TH_L2PA: 106, l2miss_BW: 58, llc_miss_BW: 58
L2_PA_ratio set to: 82
TH_L2PA: 106, l2miss_BW: 54, llc_miss_BW: 54
L2_PA_ratio set to: 96
TH_L2PA: 106, l2miss_BW: 57, llc_miss_BW: 57
L2_PA_ratio set to: 85
TH_L2PA: 106, l2miss_BW: 56, llc_miss_BW: 56
L2_PA_ratio set to: 89
TH_L2PA: 106, l2miss_BW: 59, llc_miss_BW: 59
L2_PA_ratio set to: 79
TH_L2PA: 106, l2miss_BW: 57, llc_miss_BW: 57
L2_PA_ratio set to: 85
TH_L2PA: 106, l2miss_BW: 57, llc_miss_BW: 57
L2_PA_ratio set to: 85
TH_L2PA: 106, l2miss_BW: 58, llc_miss_BW: 58
L2_PA_ratio set to: 82
TH_L2PA: 106, l2miss_BW: 57, llc_miss_BW: 57
L2_PA_ratio set to: 85
TH_L2PA: 106, l2miss_BW: 58, llc_miss_BW: 58
L2_PA_ratio set to: 82
TH_L2PA: 106, l2miss_BW: 58, llc_miss_BW: 58
L2_PA_ratio set to: 82
TH_L2PA: 106, l2miss_BW: 58, llc_miss_BW: 58
L2_PA_ratio set to: 82
TH_L2PA: 106, l2miss_BW: 57, llc_miss_BW: 57
L2_PA_ratio set to: 85
TH_L2PA: 106, l2miss_BW: 57, llc_miss_BW: 57
L2_PA_ratio set to: 85
Heartbeat CPU 1 instructions: 20000007 cycles: 41535443 heartbeat IPC: 0.462181 cumulative IPC: 0.461889 (Simulation time: 0 hr 36 min 17 sec) 
PAM Allow Rate: 85%
TH_L2PA: 106, l2miss_BW: 58, llc_miss_BW: 58
L2_PA_ratio set to: 82
TH_L2PA: 106, l2miss_BW: 58, llc_miss_BW: 58
L2_PA_ratio set to: 82
Heartbeat CPU 2 instructions: 20000007 cycles: 41758486 heartbeat IPC: 0.459367 cumulative IPC: 0.459398 (Simulation time: 0 hr 36 min 28 sec) 
PAM Allow Rate: 82%
TH_L2PA: 106, l2miss_BW: 57, llc_miss_BW: 57
L2_PA_ratio set to: 85
Heartbeat CPU 0 instructions: 20000007 cycles: 41836204 heartbeat IPC: 0.458937 cumulative IPC: 0.458536 (Simulation time: 0 hr 36 min 32 sec) 
PAM Allow Rate: 85%
Heartbeat CPU 5 instructions: 20000007 cycles: 41837431 heartbeat IPC: 0.457633 cumulative IPC: 0.458524 (Simulation time: 0 hr 36 min 32 sec) 
PAM Allow Rate: 85%
TH_L2PA: 106, l2miss_BW: 55, llc_miss_BW: 55
L2_PA_ratio set to: 92
Heartbeat CPU 6 instructions: 20000007 cycles: 41902200 heartbeat IPC: 0.457848 cumulative IPC: 0.457808 (Simulation time: 0 hr 36 min 36 sec) 
PAM Allow Rate: 92%
Heartbeat CPU 4 instructions: 20000007 cycles: 41985373 heartbeat IPC: 0.456648 cumulative IPC: 0.456892 (Simulation time: 0 hr 36 min 40 sec) 
PAM Allow Rate: 92%
Heartbeat CPU 3 instructions: 20000007 cycles: 41991919 heartbeat IPC: 0.456488 cumulative IPC: 0.456821 (Simulation time: 0 hr 36 min 40 sec) 
PAM Allow Rate: 92%
TH_L2PA: 106, l2miss_BW: 57, llc_miss_BW: 57
L2_PA_ratio set to: 85
Heartbeat CPU 9 instructions: 20000007 cycles: 42054048 heartbeat IPC: 0.456297 cumulative IPC: 0.456139 (Simulation time: 0 hr 36 min 44 sec) 
PAM Allow Rate: 85%
TH_L2PA: 106, l2miss_BW: 59, llc_miss_BW: 59
L2_PA_ratio set to: 79
Heartbeat CPU 10 instructions: 20000007 cycles: 42175374 heartbeat IPC: 0.454742 cumulative IPC: 0.454814 (Simulation time: 0 hr 36 min 50 sec) 
PAM Allow Rate: 79%
Heartbeat CPU 7 instructions: 20000007 cycles: 42199240 heartbeat IPC: 0.454692 cumulative IPC: 0.454554 (Simulation time: 0 hr 36 min 51 sec) 
PAM Allow Rate: 79%
Heartbeat CPU 8 instructions: 20000007 cycles: 42199969 heartbeat IPC: 0.454798 cumulative IPC: 0.454547 (Simulation time: 0 hr 36 min 51 sec) 
PAM Allow Rate: 79%
TH_L2PA: 106, l2miss_BW: 57, llc_miss_BW: 57
L2_PA_ratio set to: 85
TH_L2PA: 106, l2miss_BW: 57, llc_miss_BW: 57
L2_PA_ratio set to: 85
TH_L2PA: 106, l2miss_BW: 59, llc_miss_BW: 59
L2_PA_ratio set to: 79
TH_L2PA: 106, l2miss_BW: 57, llc_miss_BW: 57
L2_PA_ratio set to: 85
Heartbeat CPU 11 instructions: 20000007 cycles: 42575777 heartbeat IPC: 0.451234 cumulative IPC: 0.450496 (Simulation time: 0 hr 37 min 11 sec) 
PAM Allow Rate: 85%
TH_L2PA: 106, l2miss_BW: 58, llc_miss_BW: 58
L2_PA_ratio set to: 82
TH_L2PA: 106, l2miss_BW: 59, llc_miss_BW: 59
L2_PA_ratio set to: 79
TH_L2PA: 106, l2miss_BW: 56, llc_miss_BW: 56
L2_PA_ratio set to: 89
TH_L2PA: 106, l2miss_BW: 55, llc_miss_BW: 55
L2_PA_ratio set to: 92
TH_L2PA: 106, l2miss_BW: 57, llc_miss_BW: 57
L2_PA_ratio set to: 85
TH_L2PA: 106, l2miss_BW: 57, llc_miss_BW: 57
L2_PA_ratio set to: 85
TH_L2PA: 106, l2miss_BW: 56, llc_miss_BW: 56
L2_PA_ratio set to: 89
TH_L2PA: 106, l2miss_BW: 58, llc_miss_BW: 58
L2_PA_ratio set to: 82
TH_L2PA: 106, l2miss_BW: 60, llc_miss_BW: 60
L2_PA_ratio set to: 76
TH_L2PA: 106, l2miss_BW: 60, llc_miss_BW: 60
L2_PA_ratio set to: 76
TH_L2PA: 106, l2miss_BW: 58, llc_miss_BW: 58
L2_PA_ratio set to: 82
TH_L2PA: 106, l2miss_BW: 58, llc_miss_BW: 58
L2_PA_ratio set to: 82
TH_L2PA: 106, l2miss_BW: 56, llc_miss_BW: 56
L2_PA_ratio set to: 89
TH_L2PA: 106, l2miss_BW: 56, llc_miss_BW: 56
L2_PA_ratio set to: 89
TH_L2PA: 106, l2miss_BW: 59, llc_miss_BW: 59
L2_PA_ratio set to: 79
TH_L2PA: 106, l2miss_BW: 57, llc_miss_BW: 57
L2_PA_ratio set to: 85
TH_L2PA: 106, l2miss_BW: 57, llc_miss_BW: 57
L2_PA_ratio set to: 85
TH_L2PA: 106, l2miss_BW: 58, llc_miss_BW: 58
L2_PA_ratio set to: 82
TH_L2PA: 106, l2miss_BW: 57, llc_miss_BW: 57
L2_PA_ratio set to: 85
TH_L2PA: 106, l2miss_BW: 57, llc_miss_BW: 57
L2_PA_ratio set to: 85
TH_L2PA: 106, l2miss_BW: 58, llc_miss_BW: 58
L2_PA_ratio set to: 82
TH_L2PA: 106, l2miss_BW: 58, llc_miss_BW: 58
L2_PA_ratio set to: 82
TH_L2PA: 106, l2miss_BW: 58, llc_miss_BW: 58
L2_PA_ratio set to: 82
TH_L2PA: 106, l2miss_BW: 59, llc_miss_BW: 59
L2_PA_ratio set to: 79
TH_L2PA: 106, l2miss_BW: 57, llc_miss_BW: 57
L2_PA_ratio set to: 85
TH_L2PA: 106, l2miss_BW: 56, llc_miss_BW: 56
L2_PA_ratio set to: 89
TH_L2PA: 106, l2miss_BW: 58, llc_miss_BW: 58
L2_PA_ratio set to: 82
TH_L2PA: 106, l2miss_BW: 59, llc_miss_BW: 59
L2_PA_ratio set to: 79
TH_L2PA: 106, l2miss_BW: 58, llc_miss_BW: 58
L2_PA_ratio set to: 82
TH_L2PA: 106, l2miss_BW: 58, llc_miss_BW: 58
L2_PA_ratio set to: 82
TH_L2PA: 106, l2miss_BW: 58, llc_miss_BW: 58
L2_PA_ratio set to: 82
TH_L2PA: 106, l2miss_BW: 57, llc_miss_BW: 57
L2_PA_ratio set to: 85
TH_L2PA: 106, l2miss_BW: 59, llc_miss_BW: 59
L2_PA_ratio set to: 79
TH_L2PA: 106, l2miss_BW: 58, llc_miss_BW: 58
L2_PA_ratio set to: 82
TH_L2PA: 106, l2miss_BW: 56, llc_miss_BW: 56
L2_PA_ratio set to: 89
TH_L2PA: 106, l2miss_BW: 56, llc_miss_BW: 56
L2_PA_ratio set to: 89
TH_L2PA: 106, l2miss_BW: 60, llc_miss_BW: 60
L2_PA_ratio set to: 76
TH_L2PA: 106, l2miss_BW: 57, llc_miss_BW: 57
L2_PA_ratio set to: 85
TH_L2PA: 106, l2miss_BW: 57, llc_miss_BW: 57
L2_PA_ratio set to: 85
TH_L2PA: 106, l2miss_BW: 57, llc_miss_BW: 57
L2_PA_ratio set to: 85
TH_L2PA: 106, l2miss_BW: 58, llc_miss_BW: 58
L2_PA_ratio set to: 82
TH_L2PA: 106, l2miss_BW: 57, llc_miss_BW: 57
L2_PA_ratio set to: 85
TH_L2PA: 106, l2miss_BW: 57, llc_miss_BW: 57
L2_PA_ratio set to: 85
TH_L2PA: 106, l2miss_BW: 57, llc_miss_BW: 57
L2_PA_ratio set to: 85
TH_L2PA: 106, l2miss_BW: 58, llc_miss_BW: 58
L2_PA_ratio set to: 82
TH_L2PA: 106, l2miss_BW: 57, llc_miss_BW: 57
L2_PA_ratio set to: 85
TH_L2PA: 106, l2miss_BW: 58, llc_miss_BW: 58
L2_PA_ratio set to: 82
TH_L2PA: 106, l2miss_BW: 57, llc_miss_BW: 57
L2_PA_ratio set to: 85
TH_L2PA: 106, l2miss_BW: 58, llc_miss_BW: 58
L2_PA_ratio set to: 82
TH_L2PA: 106, l2miss_BW: 59, llc_miss_BW: 59
L2_PA_ratio set to: 79
TH_L2PA: 106, l2miss_BW: 56, llc_miss_BW: 56
L2_PA_ratio set to: 89
TH_L2PA: 106, l2miss_BW: 58, llc_miss_BW: 58
L2_PA_ratio set to: 82
TH_L2PA: 106, l2miss_BW: 58, llc_miss_BW: 58
L2_PA_ratio set to: 82
TH_L2PA: 106, l2miss_BW: 58, llc_miss_BW: 58
L2_PA_ratio set to: 82
TH_L2PA: 106, l2miss_BW: 56, llc_miss_BW: 56
L2_PA_ratio set to: 89
TH_L2PA: 106, l2miss_BW: 57, llc_miss_BW: 57
L2_PA_ratio set to: 85
TH_L2PA: 106, l2miss_BW: 58, llc_miss_BW: 58
L2_PA_ratio set to: 82
TH_L2PA: 106, l2miss_BW: 58, llc_miss_BW: 58
L2_PA_ratio set to: 82
TH_L2PA: 106, l2miss_BW: 57, llc_miss_BW: 57
L2_PA_ratio set to: 85
TH_L2PA: 106, l2miss_BW: 58, llc_miss_BW: 58
L2_PA_ratio set to: 82
TH_L2PA: 106, l2miss_BW: 57, llc_miss_BW: 57
L2_PA_ratio set to: 85
TH_L2PA: 106, l2miss_BW: 57, llc_miss_BW: 57
L2_PA_ratio set to: 85
TH_L2PA: 106, l2miss_BW: 58, llc_miss_BW: 58
L2_PA_ratio set to: 82
TH_L2PA: 106, l2miss_BW: 58, llc_miss_BW: 58
L2_PA_ratio set to: 82
TH_L2PA: 106, l2miss_BW: 55, llc_miss_BW: 55
L2_PA_ratio set to: 92
TH_L2PA: 106, l2miss_BW: 59, llc_miss_BW: 59
L2_PA_ratio set to: 79
TH_L2PA: 106, l2miss_BW: 57, llc_miss_BW: 57
L2_PA_ratio set to: 85
TH_L2PA: 106, l2miss_BW: 57, llc_miss_BW: 57
L2_PA_ratio set to: 85
TH_L2PA: 106, l2miss_BW: 58, llc_miss_BW: 58
L2_PA_ratio set to: 82
TH_L2PA: 106, l2miss_BW: 57, llc_miss_BW: 57
L2_PA_ratio set to: 85
TH_L2PA: 106, l2miss_BW: 57, llc_miss_BW: 57
L2_PA_ratio set to: 85
TH_L2PA: 106, l2miss_BW: 58, llc_miss_BW: 58
L2_PA_ratio set to: 82
TH_L2PA: 106, l2miss_BW: 56, llc_miss_BW: 56
L2_PA_ratio set to: 89
TH_L2PA: 106, l2miss_BW: 59, llc_miss_BW: 59
L2_PA_ratio set to: 79
TH_L2PA: 106, l2miss_BW: 59, llc_miss_BW: 59
L2_PA_ratio set to: 79
TH_L2PA: 106, l2miss_BW: 59, llc_miss_BW: 59
L2_PA_ratio set to: 79
TH_L2PA: 106, l2miss_BW: 56, llc_miss_BW: 56
L2_PA_ratio set to: 89
TH_L2PA: 106, l2miss_BW: 58, llc_miss_BW: 58
L2_PA_ratio set to: 82
TH_L2PA: 106, l2miss_BW: 57, llc_miss_BW: 57
L2_PA_ratio set to: 85
TH_L2PA: 106, l2miss_BW: 56, llc_miss_BW: 56
L2_PA_ratio set to: 89
TH_L2PA: 106, l2miss_BW: 59, llc_miss_BW: 59
L2_PA_ratio set to: 79
TH_L2PA: 106, l2miss_BW: 58, llc_miss_BW: 58
L2_PA_ratio set to: 82
TH_L2PA: 106, l2miss_BW: 57, llc_miss_BW: 57
L2_PA_ratio set to: 85
TH_L2PA: 106, l2miss_BW: 56, llc_miss_BW: 56
L2_PA_ratio set to: 89
TH_L2PA: 106, l2miss_BW: 59, llc_miss_BW: 59
L2_PA_ratio set to: 79
TH_L2PA: 106, l2miss_BW: 57, llc_miss_BW: 57
L2_PA_ratio set to: 85
TH_L2PA: 106, l2miss_BW: 57, llc_miss_BW: 57
L2_PA_ratio set to: 85
TH_L2PA: 106, l2miss_BW: 57, llc_miss_BW: 57
L2_PA_ratio set to: 85
TH_L2PA: 106, l2miss_BW: 59, llc_miss_BW: 59
L2_PA_ratio set to: 79
TH_L2PA: 106, l2miss_BW: 58, llc_miss_BW: 58
L2_PA_ratio set to: 82
TH_L2PA: 106, l2miss_BW: 58, llc_miss_BW: 58
L2_PA_ratio set to: 82
TH_L2PA: 106, l2miss_BW: 57, llc_miss_BW: 57
L2_PA_ratio set to: 85
TH_L2PA: 106, l2miss_BW: 56, llc_miss_BW: 56
L2_PA_ratio set to: 89
TH_L2PA: 106, l2miss_BW: 60, llc_miss_BW: 60
L2_PA_ratio set to: 76
TH_L2PA: 106, l2miss_BW: 58, llc_miss_BW: 58
L2_PA_ratio set to: 82
TH_L2PA: 106, l2miss_BW: 57, llc_miss_BW: 57
L2_PA_ratio set to: 85
TH_L2PA: 106, l2miss_BW: 57, llc_miss_BW: 57
L2_PA_ratio set to: 85
TH_L2PA: 106, l2miss_BW: 56, llc_miss_BW: 56
L2_PA_ratio set to: 89
TH_L2PA: 106, l2miss_BW: 59, llc_miss_BW: 59
L2_PA_ratio set to: 79
TH_L2PA: 106, l2miss_BW: 58, llc_miss_BW: 58
L2_PA_ratio set to: 82
TH_L2PA: 106, l2miss_BW: 59, llc_miss_BW: 59
L2_PA_ratio set to: 79
TH_L2PA: 106, l2miss_BW: 56, llc_miss_BW: 56
L2_PA_ratio set to: 89
TH_L2PA: 106, l2miss_BW: 58, llc_miss_BW: 58
L2_PA_ratio set to: 82
TH_L2PA: 106, l2miss_BW: 59, llc_miss_BW: 59
L2_PA_ratio set to: 79
TH_L2PA: 106, l2miss_BW: 57, llc_miss_BW: 57
L2_PA_ratio set to: 85
TH_L2PA: 106, l2miss_BW: 60, llc_miss_BW: 60
L2_PA_ratio set to: 76
TH_L2PA: 106, l2miss_BW: 58, llc_miss_BW: 58
L2_PA_ratio set to: 82
TH_L2PA: 106, l2miss_BW: 58, llc_miss_BW: 58
L2_PA_ratio set to: 82
TH_L2PA: 106, l2miss_BW: 55, llc_miss_BW: 55
L2_PA_ratio set to: 92
TH_L2PA: 106, l2miss_BW: 58, llc_miss_BW: 58
L2_PA_ratio set to: 82
TH_L2PA: 106, l2miss_BW: 57, llc_miss_BW: 57
L2_PA_ratio set to: 85
TH_L2PA: 106, l2miss_BW: 58, llc_miss_BW: 58
L2_PA_ratio set to: 82
TH_L2PA: 106, l2miss_BW: 59, llc_miss_BW: 59
L2_PA_ratio set to: 79
TH_L2PA: 106, l2miss_BW: 56, llc_miss_BW: 56
L2_PA_ratio set to: 89
TH_L2PA: 106, l2miss_BW: 57, llc_miss_BW: 57
L2_PA_ratio set to: 85
TH_L2PA: 106, l2miss_BW: 57, llc_miss_BW: 57
L2_PA_ratio set to: 85
TH_L2PA: 106, l2miss_BW: 59, llc_miss_BW: 59
L2_PA_ratio set to: 79
TH_L2PA: 106, l2miss_BW: 58, llc_miss_BW: 58
L2_PA_ratio set to: 82
TH_L2PA: 106, l2miss_BW: 58, llc_miss_BW: 58
L2_PA_ratio set to: 82
TH_L2PA: 106, l2miss_BW: 58, llc_miss_BW: 58
L2_PA_ratio set to: 82
TH_L2PA: 106, l2miss_BW: 55, llc_miss_BW: 55
L2_PA_ratio set to: 92
TH_L2PA: 106, l2miss_BW: 59, llc_miss_BW: 59
L2_PA_ratio set to: 79
TH_L2PA: 106, l2miss_BW: 58, llc_miss_BW: 58
L2_PA_ratio set to: 82
TH_L2PA: 106, l2miss_BW: 55, llc_miss_BW: 55
L2_PA_ratio set to: 92
TH_L2PA: 106, l2miss_BW: 59, llc_miss_BW: 59
L2_PA_ratio set to: 79
TH_L2PA: 106, l2miss_BW: 57, llc_miss_BW: 57
L2_PA_ratio set to: 85
TH_L2PA: 106, l2miss_BW: 56, llc_miss_BW: 56
L2_PA_ratio set to: 89
TH_L2PA: 106, l2miss_BW: 55, llc_miss_BW: 55
L2_PA_ratio set to: 92
TH_L2PA: 106, l2miss_BW: 58, llc_miss_BW: 58
L2_PA_ratio set to: 82
TH_L2PA: 106, l2miss_BW: 58, llc_miss_BW: 58
L2_PA_ratio set to: 82
TH_L2PA: 106, l2miss_BW: 56, llc_miss_BW: 56
L2_PA_ratio set to: 89
TH_L2PA: 106, l2miss_BW: 60, llc_miss_BW: 60
L2_PA_ratio set to: 76
TH_L2PA: 106, l2miss_BW: 56, llc_miss_BW: 56
L2_PA_ratio set to: 89
TH_L2PA: 106, l2miss_BW: 56, llc_miss_BW: 56
L2_PA_ratio set to: 89
TH_L2PA: 106, l2miss_BW: 60, llc_miss_BW: 60
L2_PA_ratio set to: 76
TH_L2PA: 106, l2miss_BW: 57, llc_miss_BW: 57
L2_PA_ratio set to: 85
TH_L2PA: 106, l2miss_BW: 57, llc_miss_BW: 57
L2_PA_ratio set to: 85
TH_L2PA: 106, l2miss_BW: 58, llc_miss_BW: 58
L2_PA_ratio set to: 82
TH_L2PA: 106, l2miss_BW: 59, llc_miss_BW: 59
L2_PA_ratio set to: 79
TH_L2PA: 106, l2miss_BW: 56, llc_miss_BW: 56
L2_PA_ratio set to: 89
TH_L2PA: 106, l2miss_BW: 58, llc_miss_BW: 58
L2_PA_ratio set to: 82
TH_L2PA: 106, l2miss_BW: 60, llc_miss_BW: 60
L2_PA_ratio set to: 76
TH_L2PA: 106, l2miss_BW: 57, llc_miss_BW: 57
L2_PA_ratio set to: 85
TH_L2PA: 106, l2miss_BW: 59, llc_miss_BW: 59
L2_PA_ratio set to: 79
TH_L2PA: 106, l2miss_BW: 58, llc_miss_BW: 58
L2_PA_ratio set to: 82
TH_L2PA: 106, l2miss_BW: 57, llc_miss_BW: 57
L2_PA_ratio set to: 85
TH_L2PA: 106, l2miss_BW: 58, llc_miss_BW: 58
L2_PA_ratio set to: 82
TH_L2PA: 106, l2miss_BW: 59, llc_miss_BW: 59
L2_PA_ratio set to: 79
TH_L2PA: 106, l2miss_BW: 57, llc_miss_BW: 57
L2_PA_ratio set to: 85
TH_L2PA: 106, l2miss_BW: 56, llc_miss_BW: 56
L2_PA_ratio set to: 89
TH_L2PA: 106, l2miss_BW: 58, llc_miss_BW: 58
L2_PA_ratio set to: 82
TH_L2PA: 106, l2miss_BW: 57, llc_miss_BW: 57
L2_PA_ratio set to: 85
TH_L2PA: 106, l2miss_BW: 59, llc_miss_BW: 59
L2_PA_ratio set to: 79
TH_L2PA: 106, l2miss_BW: 58, llc_miss_BW: 58
L2_PA_ratio set to: 82
TH_L2PA: 106, l2miss_BW: 57, llc_miss_BW: 57
L2_PA_ratio set to: 85
TH_L2PA: 106, l2miss_BW: 58, llc_miss_BW: 58
L2_PA_ratio set to: 82
TH_L2PA: 106, l2miss_BW: 59, llc_miss_BW: 59
L2_PA_ratio set to: 79
TH_L2PA: 106, l2miss_BW: 56, llc_miss_BW: 56
L2_PA_ratio set to: 89
TH_L2PA: 106, l2miss_BW: 57, llc_miss_BW: 57
L2_PA_ratio set to: 85
TH_L2PA: 106, l2miss_BW: 57, llc_miss_BW: 57
L2_PA_ratio set to: 85
TH_L2PA: 106, l2miss_BW: 59, llc_miss_BW: 59
L2_PA_ratio set to: 79
TH_L2PA: 106, l2miss_BW: 58, llc_miss_BW: 58
L2_PA_ratio set to: 82
TH_L2PA: 106, l2miss_BW: 56, llc_miss_BW: 56
L2_PA_ratio set to: 89
TH_L2PA: 106, l2miss_BW: 56, llc_miss_BW: 56
L2_PA_ratio set to: 89
TH_L2PA: 106, l2miss_BW: 57, llc_miss_BW: 57
L2_PA_ratio set to: 85
TH_L2PA: 106, l2miss_BW: 56, llc_miss_BW: 56
L2_PA_ratio set to: 89
TH_L2PA: 106, l2miss_BW: 56, llc_miss_BW: 56
L2_PA_ratio set to: 89
TH_L2PA: 106, l2miss_BW: 58, llc_miss_BW: 58
L2_PA_ratio set to: 82
TH_L2PA: 106, l2miss_BW: 55, llc_miss_BW: 55
L2_PA_ratio set to: 92
TH_L2PA: 106, l2miss_BW: 59, llc_miss_BW: 59
L2_PA_ratio set to: 79
TH_L2PA: 106, l2miss_BW: 58, llc_miss_BW: 58
L2_PA_ratio set to: 82
TH_L2PA: 106, l2miss_BW: 57, llc_miss_BW: 57
L2_PA_ratio set to: 85
TH_L2PA: 106, l2miss_BW: 59, llc_miss_BW: 59
L2_PA_ratio set to: 79
TH_L2PA: 106, l2miss_BW: 57, llc_miss_BW: 57
L2_PA_ratio set to: 85
TH_L2PA: 106, l2miss_BW: 59, llc_miss_BW: 59
L2_PA_ratio set to: 79
TH_L2PA: 106, l2miss_BW: 59, llc_miss_BW: 59
L2_PA_ratio set to: 79
TH_L2PA: 106, l2miss_BW: 56, llc_miss_BW: 56
L2_PA_ratio set to: 89
TH_L2PA: 106, l2miss_BW: 59, llc_miss_BW: 59
L2_PA_ratio set to: 79
TH_L2PA: 106, l2miss_BW: 57, llc_miss_BW: 57
L2_PA_ratio set to: 85
TH_L2PA: 106, l2miss_BW: 56, llc_miss_BW: 56
L2_PA_ratio set to: 89
TH_L2PA: 106, l2miss_BW: 58, llc_miss_BW: 58
L2_PA_ratio set to: 82
TH_L2PA: 106, l2miss_BW: 56, llc_miss_BW: 56
L2_PA_ratio set to: 89
TH_L2PA: 106, l2miss_BW: 57, llc_miss_BW: 57
L2_PA_ratio set to: 85
TH_L2PA: 106, l2miss_BW: 59, llc_miss_BW: 59
L2_PA_ratio set to: 79
TH_L2PA: 106, l2miss_BW: 59, llc_miss_BW: 59
L2_PA_ratio set to: 79
TH_L2PA: 106, l2miss_BW: 58, llc_miss_BW: 58
L2_PA_ratio set to: 82
TH_L2PA: 106, l2miss_BW: 58, llc_miss_BW: 58
L2_PA_ratio set to: 82
TH_L2PA: 106, l2miss_BW: 57, llc_miss_BW: 57
L2_PA_ratio set to: 85
TH_L2PA: 106, l2miss_BW: 59, llc_miss_BW: 59
L2_PA_ratio set to: 79
TH_L2PA: 106, l2miss_BW: 57, llc_miss_BW: 57
L2_PA_ratio set to: 85
TH_L2PA: 106, l2miss_BW: 56, llc_miss_BW: 56
L2_PA_ratio set to: 89
TH_L2PA: 106, l2miss_BW: 55, llc_miss_BW: 55
L2_PA_ratio set to: 92
TH_L2PA: 106, l2miss_BW: 57, llc_miss_BW: 57
L2_PA_ratio set to: 85
TH_L2PA: 106, l2miss_BW: 60, llc_miss_BW: 60
L2_PA_ratio set to: 76
TH_L2PA: 106, l2miss_BW: 59, llc_miss_BW: 59
L2_PA_ratio set to: 79
TH_L2PA: 106, l2miss_BW: 58, llc_miss_BW: 58
L2_PA_ratio set to: 82
TH_L2PA: 106, l2miss_BW: 57, llc_miss_BW: 57
L2_PA_ratio set to: 85
TH_L2PA: 106, l2miss_BW: 58, llc_miss_BW: 58
L2_PA_ratio set to: 82
TH_L2PA: 106, l2miss_BW: 57, llc_miss_BW: 57
L2_PA_ratio set to: 85
TH_L2PA: 106, l2miss_BW: 57, llc_miss_BW: 57
L2_PA_ratio set to: 85
TH_L2PA: 106, l2miss_BW: 57, llc_miss_BW: 57
L2_PA_ratio set to: 85
TH_L2PA: 106, l2miss_BW: 57, llc_miss_BW: 57
L2_PA_ratio set to: 85
TH_L2PA: 106, l2miss_BW: 57, llc_miss_BW: 57
L2_PA_ratio set to: 85
TH_L2PA: 106, l2miss_BW: 58, llc_miss_BW: 58
L2_PA_ratio set to: 82
TH_L2PA: 106, l2miss_BW: 58, llc_miss_BW: 58
L2_PA_ratio set to: 82
TH_L2PA: 106, l2miss_BW: 57, llc_miss_BW: 57
L2_PA_ratio set to: 85
TH_L2PA: 106, l2miss_BW: 58, llc_miss_BW: 58
L2_PA_ratio set to: 82
Heartbeat CPU 1 instructions: 30000007 cycles: 63212826 heartbeat IPC: 0.46131 cumulative IPC: 0.461689 (Simulation time: 0 hr 55 min 16 sec) 
PAM Allow Rate: 82%
TH_L2PA: 106, l2miss_BW: 58, llc_miss_BW: 58
L2_PA_ratio set to: 82
TH_L2PA: 106, l2miss_BW: 57, llc_miss_BW: 57
L2_PA_ratio set to: 85
TH_L2PA: 106, l2miss_BW: 57, llc_miss_BW: 57
L2_PA_ratio set to: 85
Heartbeat CPU 2 instructions: 30000001 cycles: 63560498 heartbeat IPC: 0.458673 cumulative IPC: 0.459148 (Simulation time: 0 hr 55 min 34 sec) 
PAM Allow Rate: 85%
TH_L2PA: 106, l2miss_BW: 58, llc_miss_BW: 58
L2_PA_ratio set to: 82
Heartbeat CPU 0 instructions: 30000007 cycles: 63627396 heartbeat IPC: 0.458901 cumulative IPC: 0.458662 (Simulation time: 0 hr 55 min 37 sec) 
PAM Allow Rate: 82%
Heartbeat CPU 5 instructions: 30000007 cycles: 63658914 heartbeat IPC: 0.458264 cumulative IPC: 0.458434 (Simulation time: 0 hr 55 min 39 sec) 
PAM Allow Rate: 82%
TH_L2PA: 106, l2miss_BW: 57, llc_miss_BW: 57
L2_PA_ratio set to: 85
Heartbeat CPU 6 instructions: 30000007 cycles: 63756603 heartbeat IPC: 0.457574 cumulative IPC: 0.457727 (Simulation time: 0 hr 55 min 44 sec) 
PAM Allow Rate: 85%
TH_L2PA: 106, l2miss_BW: 58, llc_miss_BW: 58
L2_PA_ratio set to: 82
Heartbeat CPU 4 instructions: 30000007 cycles: 63880266 heartbeat IPC: 0.456728 cumulative IPC: 0.456836 (Simulation time: 0 hr 55 min 51 sec) 
PAM Allow Rate: 82%
Heartbeat CPU 3 instructions: 30000007 cycles: 63890796 heartbeat IPC: 0.456644 cumulative IPC: 0.45676 (Simulation time: 0 hr 55 min 51 sec) 
PAM Allow Rate: 82%
TH_L2PA: 106, l2miss_BW: 57, llc_miss_BW: 57
L2_PA_ratio set to: 85
Heartbeat CPU 9 instructions: 30000007 cycles: 63943935 heartbeat IPC: 0.456832 cumulative IPC: 0.456378 (Simulation time: 0 hr 55 min 54 sec) 
PAM Allow Rate: 85%
TH_L2PA: 106, l2miss_BW: 56, llc_miss_BW: 56
L2_PA_ratio set to: 89
TH_L2PA: 106, l2miss_BW: 57, llc_miss_BW: 57
L2_PA_ratio set to: 85
Heartbeat CPU 10 instructions: 30000007 cycles: 64104925 heartbeat IPC: 0.456006 cumulative IPC: 0.455224 (Simulation time: 0 hr 56 min 2 sec) 
PAM Allow Rate: 85%
Heartbeat CPU 8 instructions: 30000007 cycles: 64148762 heartbeat IPC: 0.455606 cumulative IPC: 0.454911 (Simulation time: 0 hr 56 min 5 sec) 
PAM Allow Rate: 85%
Heartbeat CPU 7 instructions: 30000007 cycles: 64189816 heartbeat IPC: 0.45474 cumulative IPC: 0.454618 (Simulation time: 0 hr 56 min 7 sec) 
PAM Allow Rate: 85%
TH_L2PA: 106, l2miss_BW: 58, llc_miss_BW: 58
L2_PA_ratio set to: 82
TH_L2PA: 106, l2miss_BW: 58, llc_miss_BW: 58
L2_PA_ratio set to: 82
TH_L2PA: 106, l2miss_BW: 59, llc_miss_BW: 59
L2_PA_ratio set to: 79
TH_L2PA: 106, l2miss_BW: 57, llc_miss_BW: 57
L2_PA_ratio set to: 85
TH_L2PA: 106, l2miss_BW: 57, llc_miss_BW: 57
L2_PA_ratio set to: 85
Heartbeat CPU 11 instructions: 30000007 cycles: 64685808 heartbeat IPC: 0.452283 cumulative IPC: 0.451111 (Simulation time: 0 hr 56 min 33 sec) 
PAM Allow Rate: 85%
TH_L2PA: 106, l2miss_BW: 57, llc_miss_BW: 57
L2_PA_ratio set to: 85
TH_L2PA: 106, l2miss_BW: 56, llc_miss_BW: 56
L2_PA_ratio set to: 89
TH_L2PA: 106, l2miss_BW: 58, llc_miss_BW: 58
L2_PA_ratio set to: 82
TH_L2PA: 106, l2miss_BW: 58, llc_miss_BW: 58
L2_PA_ratio set to: 82
TH_L2PA: 106, l2miss_BW: 58, llc_miss_BW: 58
L2_PA_ratio set to: 82
TH_L2PA: 106, l2miss_BW: 57, llc_miss_BW: 57
L2_PA_ratio set to: 85
TH_L2PA: 106, l2miss_BW: 56, llc_miss_BW: 56
L2_PA_ratio set to: 89
TH_L2PA: 106, l2miss_BW: 59, llc_miss_BW: 59
L2_PA_ratio set to: 79
TH_L2PA: 106, l2miss_BW: 56, llc_miss_BW: 56
L2_PA_ratio set to: 89
TH_L2PA: 106, l2miss_BW: 57, llc_miss_BW: 57
L2_PA_ratio set to: 85
TH_L2PA: 106, l2miss_BW: 58, llc_miss_BW: 58
L2_PA_ratio set to: 82
TH_L2PA: 106, l2miss_BW: 58, llc_miss_BW: 58
L2_PA_ratio set to: 82
TH_L2PA: 106, l2miss_BW: 56, llc_miss_BW: 56
L2_PA_ratio set to: 89
TH_L2PA: 106, l2miss_BW: 57, llc_miss_BW: 57
L2_PA_ratio set to: 85
TH_L2PA: 106, l2miss_BW: 59, llc_miss_BW: 59
L2_PA_ratio set to: 79
TH_L2PA: 106, l2miss_BW: 55, llc_miss_BW: 55
L2_PA_ratio set to: 92
TH_L2PA: 106, l2miss_BW: 58, llc_miss_BW: 58
L2_PA_ratio set to: 82
TH_L2PA: 106, l2miss_BW: 56, llc_miss_BW: 56
L2_PA_ratio set to: 89
TH_L2PA: 106, l2miss_BW: 60, llc_miss_BW: 60
L2_PA_ratio set to: 76
TH_L2PA: 106, l2miss_BW: 59, llc_miss_BW: 59
L2_PA_ratio set to: 79
TH_L2PA: 106, l2miss_BW: 58, llc_miss_BW: 58
L2_PA_ratio set to: 82
TH_L2PA: 106, l2miss_BW: 56, llc_miss_BW: 56
L2_PA_ratio set to: 89
TH_L2PA: 106, l2miss_BW: 57, llc_miss_BW: 57
L2_PA_ratio set to: 85
TH_L2PA: 106, l2miss_BW: 60, llc_miss_BW: 60
L2_PA_ratio set to: 76
TH_L2PA: 106, l2miss_BW: 58, llc_miss_BW: 58
L2_PA_ratio set to: 82
TH_L2PA: 106, l2miss_BW: 55, llc_miss_BW: 55
L2_PA_ratio set to: 92
TH_L2PA: 106, l2miss_BW: 58, llc_miss_BW: 58
L2_PA_ratio set to: 82
TH_L2PA: 106, l2miss_BW: 59, llc_miss_BW: 59
L2_PA_ratio set to: 79
TH_L2PA: 106, l2miss_BW: 58, llc_miss_BW: 58
L2_PA_ratio set to: 82
TH_L2PA: 106, l2miss_BW: 57, llc_miss_BW: 57
L2_PA_ratio set to: 85
TH_L2PA: 106, l2miss_BW: 59, llc_miss_BW: 59
L2_PA_ratio set to: 79
TH_L2PA: 106, l2miss_BW: 57, llc_miss_BW: 57
L2_PA_ratio set to: 85
TH_L2PA: 106, l2miss_BW: 57, llc_miss_BW: 57
L2_PA_ratio set to: 85
TH_L2PA: 106, l2miss_BW: 59, llc_miss_BW: 59
L2_PA_ratio set to: 79
TH_L2PA: 106, l2miss_BW: 58, llc_miss_BW: 58
L2_PA_ratio set to: 82
TH_L2PA: 106, l2miss_BW: 58, llc_miss_BW: 58
L2_PA_ratio set to: 82
TH_L2PA: 106, l2miss_BW: 57, llc_miss_BW: 57
L2_PA_ratio set to: 85
TH_L2PA: 106, l2miss_BW: 57, llc_miss_BW: 57
L2_PA_ratio set to: 85
TH_L2PA: 106, l2miss_BW: 58, llc_miss_BW: 58
L2_PA_ratio set to: 82
TH_L2PA: 106, l2miss_BW: 58, llc_miss_BW: 58
L2_PA_ratio set to: 82
TH_L2PA: 106, l2miss_BW: 57, llc_miss_BW: 57
L2_PA_ratio set to: 85
TH_L2PA: 106, l2miss_BW: 56, llc_miss_BW: 56
L2_PA_ratio set to: 89
TH_L2PA: 106, l2miss_BW: 57, llc_miss_BW: 57
L2_PA_ratio set to: 85
TH_L2PA: 106, l2miss_BW: 58, llc_miss_BW: 58
L2_PA_ratio set to: 82
TH_L2PA: 106, l2miss_BW: 61, llc_miss_BW: 61
L2_PA_ratio set to: 73
TH_L2PA: 106, l2miss_BW: 55, llc_miss_BW: 55
L2_PA_ratio set to: 92
TH_L2PA: 106, l2miss_BW: 57, llc_miss_BW: 57
L2_PA_ratio set to: 85
TH_L2PA: 106, l2miss_BW: 57, llc_miss_BW: 57
L2_PA_ratio set to: 85
TH_L2PA: 106, l2miss_BW: 59, llc_miss_BW: 59
L2_PA_ratio set to: 79
TH_L2PA: 106, l2miss_BW: 58, llc_miss_BW: 58
L2_PA_ratio set to: 82
TH_L2PA: 106, l2miss_BW: 58, llc_miss_BW: 58
L2_PA_ratio set to: 82
TH_L2PA: 106, l2miss_BW: 57, llc_miss_BW: 57
L2_PA_ratio set to: 85
TH_L2PA: 106, l2miss_BW: 59, llc_miss_BW: 59
L2_PA_ratio set to: 79
TH_L2PA: 106, l2miss_BW: 57, llc_miss_BW: 57
L2_PA_ratio set to: 85
TH_L2PA: 106, l2miss_BW: 57, llc_miss_BW: 57
L2_PA_ratio set to: 85
TH_L2PA: 106, l2miss_BW: 59, llc_miss_BW: 59
L2_PA_ratio set to: 79
TH_L2PA: 106, l2miss_BW: 58, llc_miss_BW: 58
L2_PA_ratio set to: 82
TH_L2PA: 106, l2miss_BW: 57, llc_miss_BW: 57
L2_PA_ratio set to: 85
TH_L2PA: 106, l2miss_BW: 57, llc_miss_BW: 57
L2_PA_ratio set to: 85
TH_L2PA: 106, l2miss_BW: 61, llc_miss_BW: 61
L2_PA_ratio set to: 73
TH_L2PA: 106, l2miss_BW: 58, llc_miss_BW: 58
L2_PA_ratio set to: 82
TH_L2PA: 106, l2miss_BW: 55, llc_miss_BW: 55
L2_PA_ratio set to: 92
TH_L2PA: 106, l2miss_BW: 56, llc_miss_BW: 56
L2_PA_ratio set to: 89
TH_L2PA: 106, l2miss_BW: 56, llc_miss_BW: 56
L2_PA_ratio set to: 89
TH_L2PA: 106, l2miss_BW: 58, llc_miss_BW: 58
L2_PA_ratio set to: 82
TH_L2PA: 106, l2miss_BW: 60, llc_miss_BW: 60
L2_PA_ratio set to: 76
TH_L2PA: 106, l2miss_BW: 60, llc_miss_BW: 60
L2_PA_ratio set to: 76
TH_L2PA: 106, l2miss_BW: 56, llc_miss_BW: 56
L2_PA_ratio set to: 89
TH_L2PA: 106, l2miss_BW: 58, llc_miss_BW: 58
L2_PA_ratio set to: 82
TH_L2PA: 106, l2miss_BW: 58, llc_miss_BW: 58
L2_PA_ratio set to: 82
TH_L2PA: 106, l2miss_BW: 56, llc_miss_BW: 56
L2_PA_ratio set to: 89
TH_L2PA: 106, l2miss_BW: 58, llc_miss_BW: 58
L2_PA_ratio set to: 82
TH_L2PA: 106, l2miss_BW: 56, llc_miss_BW: 56
L2_PA_ratio set to: 89
TH_L2PA: 106, l2miss_BW: 56, llc_miss_BW: 56
L2_PA_ratio set to: 89
TH_L2PA: 106, l2miss_BW: 58, llc_miss_BW: 58
L2_PA_ratio set to: 82
TH_L2PA: 106, l2miss_BW: 57, llc_miss_BW: 57
L2_PA_ratio set to: 85
TH_L2PA: 106, l2miss_BW: 58, llc_miss_BW: 58
L2_PA_ratio set to: 82
TH_L2PA: 106, l2miss_BW: 58, llc_miss_BW: 58
L2_PA_ratio set to: 82
TH_L2PA: 106, l2miss_BW: 56, llc_miss_BW: 56
L2_PA_ratio set to: 89
TH_L2PA: 106, l2miss_BW: 57, llc_miss_BW: 57
L2_PA_ratio set to: 85
TH_L2PA: 106, l2miss_BW: 56, llc_miss_BW: 56
L2_PA_ratio set to: 89
TH_L2PA: 106, l2miss_BW: 58, llc_miss_BW: 58
L2_PA_ratio set to: 82
TH_L2PA: 106, l2miss_BW: 60, llc_miss_BW: 60
L2_PA_ratio set to: 76
TH_L2PA: 106, l2miss_BW: 56, llc_miss_BW: 56
L2_PA_ratio set to: 89
TH_L2PA: 106, l2miss_BW: 58, llc_miss_BW: 58
L2_PA_ratio set to: 82
TH_L2PA: 106, l2miss_BW: 57, llc_miss_BW: 57
L2_PA_ratio set to: 85
TH_L2PA: 106, l2miss_BW: 57, llc_miss_BW: 57
L2_PA_ratio set to: 85
TH_L2PA: 106, l2miss_BW: 57, llc_miss_BW: 57
L2_PA_ratio set to: 85
TH_L2PA: 106, l2miss_BW: 57, llc_miss_BW: 57
L2_PA_ratio set to: 85
TH_L2PA: 106, l2miss_BW: 57, llc_miss_BW: 57
L2_PA_ratio set to: 85
TH_L2PA: 106, l2miss_BW: 59, llc_miss_BW: 59
L2_PA_ratio set to: 79
TH_L2PA: 106, l2miss_BW: 57, llc_miss_BW: 57
L2_PA_ratio set to: 85
TH_L2PA: 106, l2miss_BW: 57, llc_miss_BW: 57
L2_PA_ratio set to: 85
TH_L2PA: 106, l2miss_BW: 57, llc_miss_BW: 57
L2_PA_ratio set to: 85
TH_L2PA: 106, l2miss_BW: 60, llc_miss_BW: 60
L2_PA_ratio set to: 76
TH_L2PA: 106, l2miss_BW: 56, llc_miss_BW: 56
L2_PA_ratio set to: 89
TH_L2PA: 106, l2miss_BW: 58, llc_miss_BW: 58
L2_PA_ratio set to: 82
TH_L2PA: 106, l2miss_BW: 56, llc_miss_BW: 56
L2_PA_ratio set to: 89
TH_L2PA: 106, l2miss_BW: 59, llc_miss_BW: 59
L2_PA_ratio set to: 79
TH_L2PA: 106, l2miss_BW: 57, llc_miss_BW: 57
L2_PA_ratio set to: 85
TH_L2PA: 106, l2miss_BW: 57, llc_miss_BW: 57
L2_PA_ratio set to: 85
TH_L2PA: 106, l2miss_BW: 57, llc_miss_BW: 57
L2_PA_ratio set to: 85
TH_L2PA: 106, l2miss_BW: 59, llc_miss_BW: 59
L2_PA_ratio set to: 79
TH_L2PA: 106, l2miss_BW: 60, llc_miss_BW: 60
L2_PA_ratio set to: 76
TH_L2PA: 106, l2miss_BW: 58, llc_miss_BW: 58
L2_PA_ratio set to: 82
TH_L2PA: 106, l2miss_BW: 57, llc_miss_BW: 57
L2_PA_ratio set to: 85
TH_L2PA: 106, l2miss_BW: 58, llc_miss_BW: 58
L2_PA_ratio set to: 82
TH_L2PA: 106, l2miss_BW: 58, llc_miss_BW: 58
L2_PA_ratio set to: 82
TH_L2PA: 106, l2miss_BW: 56, llc_miss_BW: 56
L2_PA_ratio set to: 89
TH_L2PA: 106, l2miss_BW: 57, llc_miss_BW: 57
L2_PA_ratio set to: 85
TH_L2PA: 106, l2miss_BW: 58, llc_miss_BW: 58
L2_PA_ratio set to: 82
TH_L2PA: 106, l2miss_BW: 56, llc_miss_BW: 56
L2_PA_ratio set to: 89
TH_L2PA: 106, l2miss_BW: 59, llc_miss_BW: 59
L2_PA_ratio set to: 79
TH_L2PA: 106, l2miss_BW: 56, llc_miss_BW: 56
L2_PA_ratio set to: 89
TH_L2PA: 106, l2miss_BW: 57, llc_miss_BW: 57
L2_PA_ratio set to: 85
TH_L2PA: 106, l2miss_BW: 59, llc_miss_BW: 59
L2_PA_ratio set to: 79
TH_L2PA: 106, l2miss_BW: 59, llc_miss_BW: 59
L2_PA_ratio set to: 79
TH_L2PA: 106, l2miss_BW: 57, llc_miss_BW: 57
L2_PA_ratio set to: 85
TH_L2PA: 106, l2miss_BW: 54, llc_miss_BW: 54
L2_PA_ratio set to: 96
TH_L2PA: 106, l2miss_BW: 57, llc_miss_BW: 57
L2_PA_ratio set to: 85
TH_L2PA: 106, l2miss_BW: 57, llc_miss_BW: 57
L2_PA_ratio set to: 85
TH_L2PA: 106, l2miss_BW: 58, llc_miss_BW: 58
L2_PA_ratio set to: 82
TH_L2PA: 106, l2miss_BW: 58, llc_miss_BW: 58
L2_PA_ratio set to: 82
TH_L2PA: 106, l2miss_BW: 58, llc_miss_BW: 58
L2_PA_ratio set to: 82
TH_L2PA: 106, l2miss_BW: 57, llc_miss_BW: 57
L2_PA_ratio set to: 85
TH_L2PA: 106, l2miss_BW: 56, llc_miss_BW: 56
L2_PA_ratio set to: 89
TH_L2PA: 106, l2miss_BW: 57, llc_miss_BW: 57
L2_PA_ratio set to: 85
TH_L2PA: 106, l2miss_BW: 58, llc_miss_BW: 58
L2_PA_ratio set to: 82
TH_L2PA: 106, l2miss_BW: 58, llc_miss_BW: 58
L2_PA_ratio set to: 82
TH_L2PA: 106, l2miss_BW: 58, llc_miss_BW: 58
L2_PA_ratio set to: 82
TH_L2PA: 106, l2miss_BW: 59, llc_miss_BW: 59
L2_PA_ratio set to: 79
TH_L2PA: 106, l2miss_BW: 56, llc_miss_BW: 56
L2_PA_ratio set to: 89
TH_L2PA: 106, l2miss_BW: 60, llc_miss_BW: 60
L2_PA_ratio set to: 76
TH_L2PA: 106, l2miss_BW: 56, llc_miss_BW: 56
L2_PA_ratio set to: 89
TH_L2PA: 106, l2miss_BW: 57, llc_miss_BW: 57
L2_PA_ratio set to: 85
TH_L2PA: 106, l2miss_BW: 56, llc_miss_BW: 56
L2_PA_ratio set to: 89
TH_L2PA: 106, l2miss_BW: 58, llc_miss_BW: 58
L2_PA_ratio set to: 82
TH_L2PA: 106, l2miss_BW: 57, llc_miss_BW: 57
L2_PA_ratio set to: 85
TH_L2PA: 106, l2miss_BW: 58, llc_miss_BW: 58
L2_PA_ratio set to: 82
TH_L2PA: 106, l2miss_BW: 57, llc_miss_BW: 57
L2_PA_ratio set to: 85
TH_L2PA: 106, l2miss_BW: 58, llc_miss_BW: 58
L2_PA_ratio set to: 82
TH_L2PA: 106, l2miss_BW: 59, llc_miss_BW: 59
L2_PA_ratio set to: 79
TH_L2PA: 106, l2miss_BW: 57, llc_miss_BW: 57
L2_PA_ratio set to: 85
TH_L2PA: 106, l2miss_BW: 56, llc_miss_BW: 56
L2_PA_ratio set to: 89
TH_L2PA: 106, l2miss_BW: 57, llc_miss_BW: 57
L2_PA_ratio set to: 85
TH_L2PA: 106, l2miss_BW: 57, llc_miss_BW: 57
L2_PA_ratio set to: 85
TH_L2PA: 106, l2miss_BW: 58, llc_miss_BW: 58
L2_PA_ratio set to: 82
TH_L2PA: 106, l2miss_BW: 59, llc_miss_BW: 59
L2_PA_ratio set to: 79
TH_L2PA: 106, l2miss_BW: 56, llc_miss_BW: 56
L2_PA_ratio set to: 89
TH_L2PA: 106, l2miss_BW: 56, llc_miss_BW: 56
L2_PA_ratio set to: 89
TH_L2PA: 106, l2miss_BW: 58, llc_miss_BW: 58
L2_PA_ratio set to: 82
TH_L2PA: 106, l2miss_BW: 57, llc_miss_BW: 57
L2_PA_ratio set to: 85
TH_L2PA: 106, l2miss_BW: 56, llc_miss_BW: 56
L2_PA_ratio set to: 89
TH_L2PA: 106, l2miss_BW: 57, llc_miss_BW: 57
L2_PA_ratio set to: 85
TH_L2PA: 106, l2miss_BW: 58, llc_miss_BW: 58
L2_PA_ratio set to: 82
TH_L2PA: 106, l2miss_BW: 57, llc_miss_BW: 57
L2_PA_ratio set to: 85
TH_L2PA: 106, l2miss_BW: 58, llc_miss_BW: 58
L2_PA_ratio set to: 82
TH_L2PA: 106, l2miss_BW: 59, llc_miss_BW: 59
L2_PA_ratio set to: 79
TH_L2PA: 106, l2miss_BW: 57, llc_miss_BW: 57
L2_PA_ratio set to: 85
TH_L2PA: 106, l2miss_BW: 57, llc_miss_BW: 57
L2_PA_ratio set to: 85
TH_L2PA: 106, l2miss_BW: 58, llc_miss_BW: 58
L2_PA_ratio set to: 82
TH_L2PA: 106, l2miss_BW: 58, llc_miss_BW: 58
L2_PA_ratio set to: 82
TH_L2PA: 106, l2miss_BW: 56, llc_miss_BW: 56
L2_PA_ratio set to: 89
TH_L2PA: 106, l2miss_BW: 59, llc_miss_BW: 59
L2_PA_ratio set to: 79
TH_L2PA: 106, l2miss_BW: 57, llc_miss_BW: 57
L2_PA_ratio set to: 85
TH_L2PA: 106, l2miss_BW: 58, llc_miss_BW: 58
L2_PA_ratio set to: 82
TH_L2PA: 106, l2miss_BW: 58, llc_miss_BW: 58
L2_PA_ratio set to: 82
TH_L2PA: 106, l2miss_BW: 57, llc_miss_BW: 57
L2_PA_ratio set to: 85
TH_L2PA: 106, l2miss_BW: 56, llc_miss_BW: 56
L2_PA_ratio set to: 89
TH_L2PA: 106, l2miss_BW: 60, llc_miss_BW: 60
L2_PA_ratio set to: 76
TH_L2PA: 106, l2miss_BW: 57, llc_miss_BW: 57
L2_PA_ratio set to: 85
TH_L2PA: 106, l2miss_BW: 59, llc_miss_BW: 59
L2_PA_ratio set to: 79
TH_L2PA: 106, l2miss_BW: 56, llc_miss_BW: 56
L2_PA_ratio set to: 89
TH_L2PA: 106, l2miss_BW: 60, llc_miss_BW: 60
L2_PA_ratio set to: 76
TH_L2PA: 106, l2miss_BW: 58, llc_miss_BW: 58
L2_PA_ratio set to: 82
TH_L2PA: 106, l2miss_BW: 57, llc_miss_BW: 57
L2_PA_ratio set to: 85
TH_L2PA: 106, l2miss_BW: 59, llc_miss_BW: 59
L2_PA_ratio set to: 79
TH_L2PA: 106, l2miss_BW: 58, llc_miss_BW: 58
L2_PA_ratio set to: 82
TH_L2PA: 106, l2miss_BW: 57, llc_miss_BW: 57
L2_PA_ratio set to: 85
TH_L2PA: 106, l2miss_BW: 57, llc_miss_BW: 57
L2_PA_ratio set to: 85
TH_L2PA: 106, l2miss_BW: 57, llc_miss_BW: 57
L2_PA_ratio set to: 85
TH_L2PA: 106, l2miss_BW: 56, llc_miss_BW: 56
L2_PA_ratio set to: 89
TH_L2PA: 106, l2miss_BW: 59, llc_miss_BW: 59
L2_PA_ratio set to: 79
TH_L2PA: 106, l2miss_BW: 57, llc_miss_BW: 57
L2_PA_ratio set to: 85
TH_L2PA: 106, l2miss_BW: 57, llc_miss_BW: 57
L2_PA_ratio set to: 85
TH_L2PA: 106, l2miss_BW: 57, llc_miss_BW: 57
L2_PA_ratio set to: 85
TH_L2PA: 106, l2miss_BW: 59, llc_miss_BW: 59
L2_PA_ratio set to: 79
TH_L2PA: 106, l2miss_BW: 57, llc_miss_BW: 57
L2_PA_ratio set to: 85
TH_L2PA: 106, l2miss_BW: 56, llc_miss_BW: 56
L2_PA_ratio set to: 89
TH_L2PA: 106, l2miss_BW: 58, llc_miss_BW: 58
L2_PA_ratio set to: 82
TH_L2PA: 106, l2miss_BW: 57, llc_miss_BW: 57
L2_PA_ratio set to: 85
TH_L2PA: 106, l2miss_BW: 56, llc_miss_BW: 56
L2_PA_ratio set to: 89
TH_L2PA: 106, l2miss_BW: 59, llc_miss_BW: 59
L2_PA_ratio set to: 79
TH_L2PA: 106, l2miss_BW: 58, llc_miss_BW: 58
L2_PA_ratio set to: 82
TH_L2PA: 106, l2miss_BW: 59, llc_miss_BW: 59
L2_PA_ratio set to: 79
TH_L2PA: 106, l2miss_BW: 58, llc_miss_BW: 58
L2_PA_ratio set to: 82
TH_L2PA: 106, l2miss_BW: 57, llc_miss_BW: 57
L2_PA_ratio set to: 85
TH_L2PA: 106, l2miss_BW: 56, llc_miss_BW: 56
L2_PA_ratio set to: 89
TH_L2PA: 106, l2miss_BW: 57, llc_miss_BW: 57
L2_PA_ratio set to: 85
TH_L2PA: 106, l2miss_BW: 57, llc_miss_BW: 57
L2_PA_ratio set to: 85
TH_L2PA: 106, l2miss_BW: 57, llc_miss_BW: 57
L2_PA_ratio set to: 85
TH_L2PA: 106, l2miss_BW: 57, llc_miss_BW: 57
L2_PA_ratio set to: 85
TH_L2PA: 106, l2miss_BW: 58, llc_miss_BW: 58
L2_PA_ratio set to: 82
Heartbeat CPU 1 instructions: 40000007 cycles: 84928380 heartbeat IPC: 0.460499 cumulative IPC: 0.461384 (Simulation time: 1 hr 14 min 17 sec) 
PAM Allow Rate: 82%
TH_L2PA: 106, l2miss_BW: 58, llc_miss_BW: 58
L2_PA_ratio set to: 82
TH_L2PA: 106, l2miss_BW: 60, llc_miss_BW: 60
L2_PA_ratio set to: 76
TH_L2PA: 106, l2miss_BW: 58, llc_miss_BW: 58
L2_PA_ratio set to: 82
Heartbeat CPU 2 instructions: 40000003 cycles: 85295722 heartbeat IPC: 0.460083 cumulative IPC: 0.459387 (Simulation time: 1 hr 14 min 36 sec) 
PAM Allow Rate: 82%
TH_L2PA: 106, l2miss_BW: 56, llc_miss_BW: 56
L2_PA_ratio set to: 89
Heartbeat CPU 5 instructions: 40000007 cycles: 85397534 heartbeat IPC: 0.460011 cumulative IPC: 0.458837 (Simulation time: 1 hr 14 min 42 sec) 
PAM Allow Rate: 89%
TH_L2PA: 106, l2miss_BW: 57, llc_miss_BW: 57
L2_PA_ratio set to: 85
Heartbeat CPU 0 instructions: 40000007 cycles: 85459542 heartbeat IPC: 0.45804 cumulative IPC: 0.458502 (Simulation time: 1 hr 14 min 45 sec) 
PAM Allow Rate: 85%
TH_L2PA: 106, l2miss_BW: 60, llc_miss_BW: 60
L2_PA_ratio set to: 76
Heartbeat CPU 6 instructions: 40000007 cycles: 85584657 heartbeat IPC: 0.458126 cumulative IPC: 0.457829 (Simulation time: 1 hr 14 min 51 sec) 
PAM Allow Rate: 76%
TH_L2PA: 106, l2miss_BW: 57, llc_miss_BW: 57
L2_PA_ratio set to: 85
TH_L2PA: 106, l2miss_BW: 56, llc_miss_BW: 56
L2_PA_ratio set to: 89
Heartbeat CPU 3 instructions: 40000007 cycles: 85763934 heartbeat IPC: 0.457182 cumulative IPC: 0.456868 (Simulation time: 1 hr 15 min 1 sec) 
PAM Allow Rate: 89%
TH_L2PA: 106, l2miss_BW: 57, llc_miss_BW: 57
L2_PA_ratio set to: 85
Heartbeat CPU 4 instructions: 40000007 cycles: 85811068 heartbeat IPC: 0.45598 cumulative IPC: 0.456616 (Simulation time: 1 hr 15 min 3 sec) 
PAM Allow Rate: 85%
Heartbeat CPU 9 instructions: 40000007 cycles: 85839759 heartbeat IPC: 0.456708 cumulative IPC: 0.456462 (Simulation time: 1 hr 15 min 5 sec) 
PAM Allow Rate: 85%
TH_L2PA: 106, l2miss_BW: 59, llc_miss_BW: 59
L2_PA_ratio set to: 79
TH_L2PA: 106, l2miss_BW: 58, llc_miss_BW: 58
L2_PA_ratio set to: 82
Heartbeat CPU 10 instructions: 40000007 cycles: 86061627 heartbeat IPC: 0.455442 cumulative IPC: 0.45528 (Simulation time: 1 hr 15 min 17 sec) 
PAM Allow Rate: 82%
TH_L2PA: 106, l2miss_BW: 60, llc_miss_BW: 60
L2_PA_ratio set to: 76
Heartbeat CPU 7 instructions: 40000007 cycles: 86181017 heartbeat IPC: 0.454727 cumulative IPC: 0.454646 (Simulation time: 1 hr 15 min 23 sec) 
PAM Allow Rate: 76%
Heartbeat CPU 8 instructions: 40000007 cycles: 86192208 heartbeat IPC: 0.45365 cumulative IPC: 0.454587 (Simulation time: 1 hr 15 min 23 sec) 
PAM Allow Rate: 76%
TH_L2PA: 106, l2miss_BW: 57, llc_miss_BW: 57
L2_PA_ratio set to: 85
TH_L2PA: 106, l2miss_BW: 56, llc_miss_BW: 56
L2_PA_ratio set to: 89
TH_L2PA: 106, l2miss_BW: 57, llc_miss_BW: 57
L2_PA_ratio set to: 85
TH_L2PA: 106, l2miss_BW: 56, llc_miss_BW: 56
L2_PA_ratio set to: 89
TH_L2PA: 106, l2miss_BW: 58, llc_miss_BW: 58
L2_PA_ratio set to: 82
TH_L2PA: 106, l2miss_BW: 58, llc_miss_BW: 58
L2_PA_ratio set to: 82
Heartbeat CPU 11 instructions: 40000007 cycles: 86799709 heartbeat IPC: 0.452204 cumulative IPC: 0.451391 (Simulation time: 1 hr 15 min 55 sec) 
PAM Allow Rate: 82%
TH_L2PA: 106, l2miss_BW: 58, llc_miss_BW: 58
L2_PA_ratio set to: 82
TH_L2PA: 106, l2miss_BW: 57, llc_miss_BW: 57
L2_PA_ratio set to: 85
TH_L2PA: 106, l2miss_BW: 57, llc_miss_BW: 57
L2_PA_ratio set to: 85
TH_L2PA: 106, l2miss_BW: 57, llc_miss_BW: 57
L2_PA_ratio set to: 85
TH_L2PA: 106, l2miss_BW: 57, llc_miss_BW: 57
L2_PA_ratio set to: 85
TH_L2PA: 106, l2miss_BW: 57, llc_miss_BW: 57
L2_PA_ratio set to: 85
TH_L2PA: 106, l2miss_BW: 59, llc_miss_BW: 59
L2_PA_ratio set to: 79
TH_L2PA: 106, l2miss_BW: 57, llc_miss_BW: 57
L2_PA_ratio set to: 85
TH_L2PA: 106, l2miss_BW: 59, llc_miss_BW: 59
L2_PA_ratio set to: 79
TH_L2PA: 106, l2miss_BW: 58, llc_miss_BW: 58
L2_PA_ratio set to: 82
TH_L2PA: 106, l2miss_BW: 58, llc_miss_BW: 58
L2_PA_ratio set to: 82
TH_L2PA: 106, l2miss_BW: 56, llc_miss_BW: 56
L2_PA_ratio set to: 89
TH_L2PA: 106, l2miss_BW: 55, llc_miss_BW: 55
L2_PA_ratio set to: 92
TH_L2PA: 106, l2miss_BW: 57, llc_miss_BW: 57
L2_PA_ratio set to: 85
TH_L2PA: 106, l2miss_BW: 55, llc_miss_BW: 55
L2_PA_ratio set to: 92
TH_L2PA: 106, l2miss_BW: 60, llc_miss_BW: 60
L2_PA_ratio set to: 76
TH_L2PA: 106, l2miss_BW: 60, llc_miss_BW: 60
L2_PA_ratio set to: 76
TH_L2PA: 106, l2miss_BW: 58, llc_miss_BW: 58
L2_PA_ratio set to: 82
TH_L2PA: 106, l2miss_BW: 57, llc_miss_BW: 57
L2_PA_ratio set to: 85
TH_L2PA: 106, l2miss_BW: 58, llc_miss_BW: 58
L2_PA_ratio set to: 82
TH_L2PA: 106, l2miss_BW: 56, llc_miss_BW: 56
L2_PA_ratio set to: 89
TH_L2PA: 106, l2miss_BW: 59, llc_miss_BW: 59
L2_PA_ratio set to: 79
TH_L2PA: 106, l2miss_BW: 58, llc_miss_BW: 58
L2_PA_ratio set to: 82
TH_L2PA: 106, l2miss_BW: 56, llc_miss_BW: 56
L2_PA_ratio set to: 89
TH_L2PA: 106, l2miss_BW: 59, llc_miss_BW: 59
L2_PA_ratio set to: 79
TH_L2PA: 106, l2miss_BW: 58, llc_miss_BW: 58
L2_PA_ratio set to: 82
TH_L2PA: 106, l2miss_BW: 56, llc_miss_BW: 56
L2_PA_ratio set to: 89
TH_L2PA: 106, l2miss_BW: 57, llc_miss_BW: 57
L2_PA_ratio set to: 85
TH_L2PA: 106, l2miss_BW: 57, llc_miss_BW: 57
L2_PA_ratio set to: 85
TH_L2PA: 106, l2miss_BW: 59, llc_miss_BW: 59
L2_PA_ratio set to: 79
TH_L2PA: 106, l2miss_BW: 57, llc_miss_BW: 57
L2_PA_ratio set to: 85
TH_L2PA: 106, l2miss_BW: 56, llc_miss_BW: 56
L2_PA_ratio set to: 89
TH_L2PA: 106, l2miss_BW: 57, llc_miss_BW: 57
L2_PA_ratio set to: 85
TH_L2PA: 106, l2miss_BW: 56, llc_miss_BW: 56
L2_PA_ratio set to: 89
TH_L2PA: 106, l2miss_BW: 59, llc_miss_BW: 59
L2_PA_ratio set to: 79
TH_L2PA: 106, l2miss_BW: 55, llc_miss_BW: 55
L2_PA_ratio set to: 92
TH_L2PA: 106, l2miss_BW: 57, llc_miss_BW: 57
L2_PA_ratio set to: 85
TH_L2PA: 106, l2miss_BW: 59, llc_miss_BW: 59
L2_PA_ratio set to: 79
TH_L2PA: 106, l2miss_BW: 58, llc_miss_BW: 58
L2_PA_ratio set to: 82
TH_L2PA: 106, l2miss_BW: 57, llc_miss_BW: 57
L2_PA_ratio set to: 85
TH_L2PA: 106, l2miss_BW: 58, llc_miss_BW: 58
L2_PA_ratio set to: 82
TH_L2PA: 106, l2miss_BW: 55, llc_miss_BW: 55
L2_PA_ratio set to: 92
TH_L2PA: 106, l2miss_BW: 56, llc_miss_BW: 56
L2_PA_ratio set to: 89
TH_L2PA: 106, l2miss_BW: 57, llc_miss_BW: 57
L2_PA_ratio set to: 85
TH_L2PA: 106, l2miss_BW: 57, llc_miss_BW: 57
L2_PA_ratio set to: 85
TH_L2PA: 106, l2miss_BW: 59, llc_miss_BW: 59
L2_PA_ratio set to: 79
TH_L2PA: 106, l2miss_BW: 59, llc_miss_BW: 59
L2_PA_ratio set to: 79
TH_L2PA: 106, l2miss_BW: 58, llc_miss_BW: 58
L2_PA_ratio set to: 82
TH_L2PA: 106, l2miss_BW: 57, llc_miss_BW: 57
L2_PA_ratio set to: 85
TH_L2PA: 106, l2miss_BW: 57, llc_miss_BW: 57
L2_PA_ratio set to: 85
TH_L2PA: 106, l2miss_BW: 58, llc_miss_BW: 58
L2_PA_ratio set to: 82
TH_L2PA: 106, l2miss_BW: 57, llc_miss_BW: 57
L2_PA_ratio set to: 85
TH_L2PA: 106, l2miss_BW: 57, llc_miss_BW: 57
L2_PA_ratio set to: 85
TH_L2PA: 106, l2miss_BW: 60, llc_miss_BW: 60
L2_PA_ratio set to: 76
TH_L2PA: 106, l2miss_BW: 59, llc_miss_BW: 59
L2_PA_ratio set to: 79
TH_L2PA: 106, l2miss_BW: 57, llc_miss_BW: 57
L2_PA_ratio set to: 85
TH_L2PA: 106, l2miss_BW: 59, llc_miss_BW: 59
L2_PA_ratio set to: 79
TH_L2PA: 106, l2miss_BW: 57, llc_miss_BW: 57
L2_PA_ratio set to: 85
TH_L2PA: 106, l2miss_BW: 57, llc_miss_BW: 57
L2_PA_ratio set to: 85
TH_L2PA: 106, l2miss_BW: 59, llc_miss_BW: 59
L2_PA_ratio set to: 79
TH_L2PA: 106, l2miss_BW: 59, llc_miss_BW: 59
L2_PA_ratio set to: 79
TH_L2PA: 106, l2miss_BW: 59, llc_miss_BW: 59
L2_PA_ratio set to: 79
TH_L2PA: 106, l2miss_BW: 57, llc_miss_BW: 57
L2_PA_ratio set to: 85
TH_L2PA: 106, l2miss_BW: 56, llc_miss_BW: 56
L2_PA_ratio set to: 89
TH_L2PA: 106, l2miss_BW: 56, llc_miss_BW: 56
L2_PA_ratio set to: 89
TH_L2PA: 106, l2miss_BW: 59, llc_miss_BW: 59
L2_PA_ratio set to: 79
TH_L2PA: 106, l2miss_BW: 59, llc_miss_BW: 59
L2_PA_ratio set to: 79
TH_L2PA: 106, l2miss_BW: 55, llc_miss_BW: 55
L2_PA_ratio set to: 92
TH_L2PA: 106, l2miss_BW: 57, llc_miss_BW: 57
L2_PA_ratio set to: 85
TH_L2PA: 106, l2miss_BW: 58, llc_miss_BW: 58
L2_PA_ratio set to: 82
TH_L2PA: 106, l2miss_BW: 58, llc_miss_BW: 58
L2_PA_ratio set to: 82
TH_L2PA: 106, l2miss_BW: 58, llc_miss_BW: 58
L2_PA_ratio set to: 82
TH_L2PA: 106, l2miss_BW: 58, llc_miss_BW: 58
L2_PA_ratio set to: 82
TH_L2PA: 106, l2miss_BW: 57, llc_miss_BW: 57
L2_PA_ratio set to: 85
TH_L2PA: 106, l2miss_BW: 58, llc_miss_BW: 58
L2_PA_ratio set to: 82
TH_L2PA: 106, l2miss_BW: 57, llc_miss_BW: 57
L2_PA_ratio set to: 85
TH_L2PA: 106, l2miss_BW: 58, llc_miss_BW: 58
L2_PA_ratio set to: 82
TH_L2PA: 106, l2miss_BW: 57, llc_miss_BW: 57
L2_PA_ratio set to: 85
TH_L2PA: 106, l2miss_BW: 59, llc_miss_BW: 59
L2_PA_ratio set to: 79
TH_L2PA: 106, l2miss_BW: 58, llc_miss_BW: 58
L2_PA_ratio set to: 82
TH_L2PA: 106, l2miss_BW: 57, llc_miss_BW: 57
L2_PA_ratio set to: 85
TH_L2PA: 106, l2miss_BW: 59, llc_miss_BW: 59
L2_PA_ratio set to: 79
TH_L2PA: 106, l2miss_BW: 57, llc_miss_BW: 57
L2_PA_ratio set to: 85
TH_L2PA: 106, l2miss_BW: 57, llc_miss_BW: 57
L2_PA_ratio set to: 85
TH_L2PA: 106, l2miss_BW: 59, llc_miss_BW: 59
L2_PA_ratio set to: 79
TH_L2PA: 106, l2miss_BW: 58, llc_miss_BW: 58
L2_PA_ratio set to: 82
TH_L2PA: 106, l2miss_BW: 57, llc_miss_BW: 57
L2_PA_ratio set to: 85
TH_L2PA: 106, l2miss_BW: 57, llc_miss_BW: 57
L2_PA_ratio set to: 85
TH_L2PA: 106, l2miss_BW: 57, llc_miss_BW: 57
L2_PA_ratio set to: 85
TH_L2PA: 106, l2miss_BW: 57, llc_miss_BW: 57
L2_PA_ratio set to: 85
TH_L2PA: 106, l2miss_BW: 59, llc_miss_BW: 59
L2_PA_ratio set to: 79
TH_L2PA: 106, l2miss_BW: 59, llc_miss_BW: 59
L2_PA_ratio set to: 79
TH_L2PA: 106, l2miss_BW: 56, llc_miss_BW: 56
L2_PA_ratio set to: 89
TH_L2PA: 106, l2miss_BW: 55, llc_miss_BW: 55
L2_PA_ratio set to: 92
TH_L2PA: 106, l2miss_BW: 61, llc_miss_BW: 61
L2_PA_ratio set to: 73
TH_L2PA: 106, l2miss_BW: 57, llc_miss_BW: 57
L2_PA_ratio set to: 85
TH_L2PA: 106, l2miss_BW: 58, llc_miss_BW: 58
L2_PA_ratio set to: 82
TH_L2PA: 106, l2miss_BW: 60, llc_miss_BW: 60
L2_PA_ratio set to: 76
TH_L2PA: 106, l2miss_BW: 57, llc_miss_BW: 57
L2_PA_ratio set to: 85
TH_L2PA: 106, l2miss_BW: 55, llc_miss_BW: 55
L2_PA_ratio set to: 92
TH_L2PA: 106, l2miss_BW: 59, llc_miss_BW: 59
L2_PA_ratio set to: 79
TH_L2PA: 106, l2miss_BW: 57, llc_miss_BW: 57
L2_PA_ratio set to: 85
TH_L2PA: 106, l2miss_BW: 57, llc_miss_BW: 57
[...]
TH_L2PA: 106, l2miss_BW: 57, llc_miss_BW: 57
L2_PA_ratio set to: 85
TH_L2PA: 106, l2miss_BW: 59, llc_miss_BW: 59
L2_PA_ratio set to: 79
TH_L2PA: 106, l2miss_BW: 56, llc_miss_BW: 56
L2_PA_ratio set to: 89
TH_L2PA: 106, l2miss_BW: 57, llc_miss_BW: 57
L2_PA_ratio set to: 85
TH_L2PA: 106, l2miss_BW: 58, llc_miss_BW: 58
L2_PA_ratio set to: 82
TH_L2PA: 106, l2miss_BW: 58, llc_miss_BW: 58
L2_PA_ratio set to: 82
TH_L2PA: 106, l2miss_BW: 59, llc_miss_BW: 59
L2_PA_ratio set to: 79
TH_L2PA: 106, l2miss_BW: 58, llc_miss_BW: 58
L2_PA_ratio set to: 82
TH_L2PA: 106, l2miss_BW: 58, llc_miss_BW: 58
L2_PA_ratio set to: 82
TH_L2PA: 106, l2miss_BW: 58, llc_miss_BW: 58
L2_PA_ratio set to: 82
TH_L2PA: 106, l2miss_BW: 58, llc_miss_BW: 58
L2_PA_ratio set to: 82
TH_L2PA: 106, l2miss_BW: 56, llc_miss_BW: 56
L2_PA_ratio set to: 89
TH_L2PA: 106, l2miss_BW: 57, llc_miss_BW: 57
L2_PA_ratio set to: 85
TH_L2PA: 106, l2miss_BW: 57, llc_miss_BW: 57
L2_PA_ratio set to: 85
TH_L2PA: 106, l2miss_BW: 56, llc_miss_BW: 56
L2_PA_ratio set to: 89
TH_L2PA: 106, l2miss_BW: 57, llc_miss_BW: 57
L2_PA_ratio set to: 85
TH_L2PA: 106, l2miss_BW: 59, llc_miss_BW: 59
L2_PA_ratio set to: 79
TH_L2PA: 106, l2miss_BW: 59, llc_miss_BW: 59
L2_PA_ratio set to: 79
TH_L2PA: 106, l2miss_BW: 58, llc_miss_BW: 58
L2_PA_ratio set to: 82
TH_L2PA: 106, l2miss_BW: 59, llc_miss_BW: 59
L2_PA_ratio set to: 79
TH_L2PA: 106, l2miss_BW: 58, llc_miss_BW: 58
L2_PA_ratio set to: 82
TH_L2PA: 106, l2miss_BW: 55, llc_miss_BW: 55
L2_PA_ratio set to: 92
TH_L2PA: 106, l2miss_BW: 57, llc_miss_BW: 57
L2_PA_ratio set to: 85
TH_L2PA: 106, l2miss_BW: 57, llc_miss_BW: 57
L2_PA_ratio set to: 85
TH_L2PA: 106, l2miss_BW: 58, llc_miss_BW: 58
L2_PA_ratio set to: 82
TH_L2PA: 106, l2miss_BW: 58, llc_miss_BW: 58
L2_PA_ratio set to: 82
TH_L2PA: 106, l2miss_BW: 61, llc_miss_BW: 61
L2_PA_ratio set to: 73
TH_L2PA: 106, l2miss_BW: 57, llc_miss_BW: 57
L2_PA_ratio set to: 85
TH_L2PA: 106, l2miss_BW: 57, llc_miss_BW: 57
L2_PA_ratio set to: 85
TH_L2PA: 106, l2miss_BW: 56, llc_miss_BW: 56
L2_PA_ratio set to: 89
TH_L2PA: 106, l2miss_BW: 58, llc_miss_BW: 58
L2_PA_ratio set to: 82
TH_L2PA: 106, l2miss_BW: 57, llc_miss_BW: 57
L2_PA_ratio set to: 85
TH_L2PA: 106, l2miss_BW: 58, llc_miss_BW: 58
L2_PA_ratio set to: 82
TH_L2PA: 106, l2miss_BW: 56, llc_miss_BW: 56
L2_PA_ratio set to: 89
TH_L2PA: 106, l2miss_BW: 57, llc_miss_BW: 57
L2_PA_ratio set to: 85
TH_L2PA: 106, l2miss_BW: 57, llc_miss_BW: 57
L2_PA_ratio set to: 85
TH_L2PA: 106, l2miss_BW: 58, llc_miss_BW: 58
L2_PA_ratio set to: 82
TH_L2PA: 106, l2miss_BW: 58, llc_miss_BW: 58
L2_PA_ratio set to: 82
TH_L2PA: 106, l2miss_BW: 58, llc_miss_BW: 58
L2_PA_ratio set to: 82
TH_L2PA: 106, l2miss_BW: 58, llc_miss_BW: 58
L2_PA_ratio set to: 82
TH_L2PA: 106, l2miss_BW: 58, llc_miss_BW: 58
L2_PA_ratio set to: 82
TH_L2PA: 106, l2miss_BW: 57, llc_miss_BW: 57
L2_PA_ratio set to: 85
TH_L2PA: 106, l2miss_BW: 56, llc_miss_BW: 56
L2_PA_ratio set to: 89
TH_L2PA: 106, l2miss_BW: 58, llc_miss_BW: 58
L2_PA_ratio set to: 82
TH_L2PA: 106, l2miss_BW: 57, llc_miss_BW: 57
L2_PA_ratio set to: 85
TH_L2PA: 106, l2miss_BW: 57, llc_miss_BW: 57
L2_PA_ratio set to: 85
TH_L2PA: 106, l2miss_BW: 57, llc_miss_BW: 57
L2_PA_ratio set to: 85
TH_L2PA: 106, l2miss_BW: 57, llc_miss_BW: 57
L2_PA_ratio set to: 85
TH_L2PA: 106, l2miss_BW: 58, llc_miss_BW: 58
L2_PA_ratio set to: 82
TH_L2PA: 106, l2miss_BW: 57, llc_miss_BW: 57
L2_PA_ratio set to: 85
TH_L2PA: 106, l2miss_BW: 57, llc_miss_BW: 57
L2_PA_ratio set to: 85
TH_L2PA: 106, l2miss_BW: 57, llc_miss_BW: 57
L2_PA_ratio set to: 85
TH_L2PA: 106, l2miss_BW: 58, llc_miss_BW: 58
L2_PA_ratio set to: 82
TH_L2PA: 106, l2miss_BW: 58, llc_miss_BW: 58
L2_PA_ratio set to: 82
TH_L2PA: 106, l2miss_BW: 58, llc_miss_BW: 58
L2_PA_ratio set to: 82
TH_L2PA: 106, l2miss_BW: 59, llc_miss_BW: 59
L2_PA_ratio set to: 79
TH_L2PA: 106, l2miss_BW: 58, llc_miss_BW: 58
L2_PA_ratio set to: 82
TH_L2PA: 106, l2miss_BW: 58, llc_miss_BW: 58
L2_PA_ratio set to: 82
TH_L2PA: 106, l2miss_BW: 56, llc_miss_BW: 56
L2_PA_ratio set to: 89
TH_L2PA: 106, l2miss_BW: 57, llc_miss_BW: 57
L2_PA_ratio set to: 85
TH_L2PA: 106, l2miss_BW: 57, llc_miss_BW: 57
L2_PA_ratio set to: 85
TH_L2PA: 106, l2miss_BW: 57, llc_miss_BW: 57
L2_PA_ratio set to: 85
TH_L2PA: 106, l2miss_BW: 57, llc_miss_BW: 57
L2_PA_ratio set to: 85
TH_L2PA: 106, l2miss_BW: 58, llc_miss_BW: 58
L2_PA_ratio set to: 82
TH_L2PA: 106, l2miss_BW: 58, llc_miss_BW: 58
L2_PA_ratio set to: 82
TH_L2PA: 106, l2miss_BW: 57, llc_miss_BW: 57
L2_PA_ratio set to: 85
TH_L2PA: 106, l2miss_BW: 57, llc_miss_BW: 57
L2_PA_ratio set to: 85
TH_L2PA: 106, l2miss_BW: 58, llc_miss_BW: 58
L2_PA_ratio set to: 82
TH_L2PA: 106, l2miss_BW: 57, llc_miss_BW: 57
L2_PA_ratio set to: 85
TH_L2PA: 106, l2miss_BW: 57, llc_miss_BW: 57
L2_PA_ratio set to: 85
TH_L2PA: 106, l2miss_BW: 58, llc_miss_BW: 58
L2_PA_ratio set to: 82
TH_L2PA: 106, l2miss_BW: 59, llc_miss_BW: 59
L2_PA_ratio set to: 79
TH_L2PA: 106, l2miss_BW: 55, llc_miss_BW: 55
L2_PA_ratio set to: 92
TH_L2PA: 106, l2miss_BW: 57, llc_miss_BW: 57
L2_PA_ratio set to: 85
TH_L2PA: 106, l2miss_BW: 57, llc_miss_BW: 57
L2_PA_ratio set to: 85
TH_L2PA: 106, l2miss_BW: 58, llc_miss_BW: 58
L2_PA_ratio set to: 82
TH_L2PA: 106, l2miss_BW: 60, llc_miss_BW: 60
L2_PA_ratio set to: 76
TH_L2PA: 106, l2miss_BW: 58, llc_miss_BW: 58
L2_PA_ratio set to: 82
TH_L2PA: 106, l2miss_BW: 59, llc_miss_BW: 59
L2_PA_ratio set to: 79
TH_L2PA: 106, l2miss_BW: 55, llc_miss_BW: 55
L2_PA_ratio set to: 92
TH_L2PA: 106, l2miss_BW: 57, llc_miss_BW: 57
L2_PA_ratio set to: 85
TH_L2PA: 106, l2miss_BW: 58, llc_miss_BW: 58
L2_PA_ratio set to: 82
TH_L2PA: 106, l2miss_BW: 57, llc_miss_BW: 57
L2_PA_ratio set to: 85
TH_L2PA: 106, l2miss_BW: 59, llc_miss_BW: 59
L2_PA_ratio set to: 79
TH_L2PA: 106, l2miss_BW: 58, llc_miss_BW: 58
L2_PA_ratio set to: 82
TH_L2PA: 106, l2miss_BW: 56, llc_miss_BW: 56
L2_PA_ratio set to: 89
TH_L2PA: 106, l2miss_BW: 58, llc_miss_BW: 58
L2_PA_ratio set to: 82
TH_L2PA: 106, l2miss_BW: 58, llc_miss_BW: 58
L2_PA_ratio set to: 82
TH_L2PA: 106, l2miss_BW: 58, llc_miss_BW: 58
L2_PA_ratio set to: 82
TH_L2PA: 106, l2miss_BW: 59, llc_miss_BW: 59
L2_PA_ratio set to: 79
TH_L2PA: 106, l2miss_BW: 58, llc_miss_BW: 58
L2_PA_ratio set to: 82
TH_L2PA: 106, l2miss_BW: 57, llc_miss_BW: 57
L2_PA_ratio set to: 85
TH_L2PA: 106, l2miss_BW: 58, llc_miss_BW: 58
L2_PA_ratio set to: 82
TH_L2PA: 106, l2miss_BW: 58, llc_miss_BW: 58
L2_PA_ratio set to: 82
TH_L2PA: 106, l2miss_BW: 56, llc_miss_BW: 56
L2_PA_ratio set to: 89
TH_L2PA: 106, l2miss_BW: 58, llc_miss_BW: 58
L2_PA_ratio set to: 82
TH_L2PA: 106, l2miss_BW: 59, llc_miss_BW: 59
L2_PA_ratio set to: 79
TH_L2PA: 106, l2miss_BW: 58, llc_miss_BW: 58
L2_PA_ratio set to: 82
TH_L2PA: 106, l2miss_BW: 57, llc_miss_BW: 57
L2_PA_ratio set to: 85
TH_L2PA: 106, l2miss_BW: 57, llc_miss_BW: 57
L2_PA_ratio set to: 85
TH_L2PA: 106, l2miss_BW: 57, llc_miss_BW: 57
L2_PA_ratio set to: 85
TH_L2PA: 106, l2miss_BW: 58, llc_miss_BW: 58
L2_PA_ratio set to: 82
TH_L2PA: 106, l2miss_BW: 58, llc_miss_BW: 58
L2_PA_ratio set to: 82
TH_L2PA: 106, l2miss_BW: 57, llc_miss_BW: 57
L2_PA_ratio set to: 85
TH_L2PA: 106, l2miss_BW: 57, llc_miss_BW: 57
L2_PA_ratio set to: 85
TH_L2PA: 106, l2miss_BW: 59, llc_miss_BW: 59
L2_PA_ratio set to: 79
TH_L2PA: 106, l2miss_BW: 57, llc_miss_BW: 57
L2_PA_ratio set to: 85
TH_L2PA: 106, l2miss_BW: 56, llc_miss_BW: 56
L2_PA_ratio set to: 89
TH_L2PA: 106, l2miss_BW: 60, llc_miss_BW: 60
L2_PA_ratio set to: 76
TH_L2PA: 106, l2miss_BW: 58, llc_miss_BW: 58
L2_PA_ratio set to: 82
TH_L2PA: 106, l2miss_BW: 58, llc_miss_BW: 58
L2_PA_ratio set to: 82
TH_L2PA: 106, l2miss_BW: 59, llc_miss_BW: 59
L2_PA_ratio set to: 79
TH_L2PA: 106, l2miss_BW: 57, llc_miss_BW: 57
L2_PA_ratio set to: 85
TH_L2PA: 106, l2miss_BW: 57, llc_miss_BW: 57
L2_PA_ratio set to: 85
TH_L2PA: 106, l2miss_BW: 57, llc_miss_BW: 57
L2_PA_ratio set to: 85
TH_L2PA: 106, l2miss_BW: 58, llc_miss_BW: 58
L2_PA_ratio set to: 82
TH_L2PA: 106, l2miss_BW: 58, llc_miss_BW: 58
L2_PA_ratio set to: 82
TH_L2PA: 106, l2miss_BW: 59, llc_miss_BW: 59
L2_PA_ratio set to: 79
TH_L2PA: 106, l2miss_BW: 57, llc_miss_BW: 57
L2_PA_ratio set to: 85
TH_L2PA: 106, l2miss_BW: 56, llc_miss_BW: 56
L2_PA_ratio set to: 89
TH_L2PA: 106, l2miss_BW: 56, llc_miss_BW: 56
L2_PA_ratio set to: 89
TH_L2PA: 106, l2miss_BW: 57, llc_miss_BW: 57
L2_PA_ratio set to: 85
TH_L2PA: 106, l2miss_BW: 59, llc_miss_BW: 59
L2_PA_ratio set to: 79
TH_L2PA: 106, l2miss_BW: 60, llc_miss_BW: 60
L2_PA_ratio set to: 76
Heartbeat CPU 1 instructions: 90000007 cycles: 193283029 heartbeat IPC: 0.460838 cumulative IPC: 0.46142 (Simulation time: 2 hr 49 min 14 sec) 
PAM Allow Rate: 76%
TH_L2PA: 106, l2miss_BW: 57, llc_miss_BW: 57
L2_PA_ratio set to: 85
TH_L2PA: 106, l2miss_BW: 58, llc_miss_BW: 58
L2_PA_ratio set to: 82
TH_L2PA: 106, l2miss_BW: 56, llc_miss_BW: 56
L2_PA_ratio set to: 89
TH_L2PA: 106, l2miss_BW: 56, llc_miss_BW: 56
L2_PA_ratio set to: 89
TH_L2PA: 106, l2miss_BW: 57, llc_miss_BW: 57
L2_PA_ratio set to: 85
TH_L2PA: 106, l2miss_BW: 56, llc_miss_BW: 56
L2_PA_ratio set to: 89
TH_L2PA: 106, l2miss_BW: 59, llc_miss_BW: 59
L2_PA_ratio set to: 79
TH_L2PA: 106, l2miss_BW: 57, llc_miss_BW: 57
L2_PA_ratio set to: 85
Heartbeat CPU 5 instructions: 90000007 cycles: 194079439 heartbeat IPC: 0.45932 cumulative IPC: 0.459522 (Simulation time: 2 hr 49 min 56 sec) 
PAM Allow Rate: 85%
TH_L2PA: 106, l2miss_BW: 57, llc_miss_BW: 57
L2_PA_ratio set to: 85
Heartbeat CPU 2 instructions: 90000007 cycles: 194188453 heartbeat IPC: 0.45896 cumulative IPC: 0.459264 (Simulation time: 2 hr 50 min 2 sec) 
PAM Allow Rate: 85%
TH_L2PA: 106, l2miss_BW: 58, llc_miss_BW: 58
L2_PA_ratio set to: 82
TH_L2PA: 106, l2miss_BW: 57, llc_miss_BW: 57
L2_PA_ratio set to: 85
TH_L2PA: 106, l2miss_BW: 57, llc_miss_BW: 57
L2_PA_ratio set to: 85
TH_L2PA: 106, l2miss_BW: 57, llc_miss_BW: 57
L2_PA_ratio set to: 85
Heartbeat CPU 0 instructions: 90000007 cycles: 194505472 heartbeat IPC: 0.45986 cumulative IPC: 0.458514 (Simulation time: 2 hr 50 min 18 sec) 
PAM Allow Rate: 85%
TH_L2PA: 106, l2miss_BW: 58, llc_miss_BW: 58
L2_PA_ratio set to: 82
TH_L2PA: 106, l2miss_BW: 56, llc_miss_BW: 56
L2_PA_ratio set to: 89
TH_L2PA: 106, l2miss_BW: 56, llc_miss_BW: 56
L2_PA_ratio set to: 89
TH_L2PA: 106, l2miss_BW: 59, llc_miss_BW: 59
L2_PA_ratio set to: 79
TH_L2PA: 106, l2miss_BW: 56, llc_miss_BW: 56
L2_PA_ratio set to: 89
Heartbeat CPU 6 instructions: 90000007 cycles: 195024285 heartbeat IPC: 0.456722 cumulative IPC: 0.457291 (Simulation time: 2 hr 50 min 46 sec) 
PAM Allow Rate: 89%
TH_L2PA: 106, l2miss_BW: 59, llc_miss_BW: 59
L2_PA_ratio set to: 79
TH_L2PA: 106, l2miss_BW: 59, llc_miss_BW: 59
L2_PA_ratio set to: 79
Heartbeat CPU 3 instructions: 90000007 cycles: 195296482 heartbeat IPC: 0.456433 cumulative IPC: 0.456653 (Simulation time: 2 hr 51 min 0 sec) 
PAM Allow Rate: 79%
TH_L2PA: 106, l2miss_BW: 59, llc_miss_BW: 59
L2_PA_ratio set to: 79
Heartbeat CPU 4 instructions: 90000007 cycles: 195314397 heartbeat IPC: 0.45588 cumulative IPC: 0.456611 (Simulation time: 2 hr 51 min 1 sec) 
PAM Allow Rate: 79%
Heartbeat CPU 9 instructions: 90000007 cycles: 195319411 heartbeat IPC: 0.457137 cumulative IPC: 0.456599 (Simulation time: 2 hr 51 min 1 sec) 
PAM Allow Rate: 79%
TH_L2PA: 106, l2miss_BW: 57, llc_miss_BW: 57
L2_PA_ratio set to: 85
TH_L2PA: 106, l2miss_BW: 58, llc_miss_BW: 58
L2_PA_ratio set to: 82
TH_L2PA: 106, l2miss_BW: 56, llc_miss_BW: 56
L2_PA_ratio set to: 89
TH_L2PA: 106, l2miss_BW: 57, llc_miss_BW: 57
L2_PA_ratio set to: 85
TH_L2PA: 106, l2miss_BW: 58, llc_miss_BW: 58
L2_PA_ratio set to: 82
TH_L2PA: 106, l2miss_BW: 57, llc_miss_BW: 57
L2_PA_ratio set to: 85
Heartbeat CPU 10 instructions: 90000007 cycles: 195953871 heartbeat IPC: 0.455672 cumulative IPC: 0.455118 (Simulation time: 2 hr 51 min 35 sec) 
PAM Allow Rate: 85%
TH_L2PA: 106, l2miss_BW: 55, llc_miss_BW: 55
L2_PA_ratio set to: 92
TH_L2PA: 106, l2miss_BW: 61, llc_miss_BW: 61
L2_PA_ratio set to: 73
Heartbeat CPU 8 instructions: 90000007 cycles: 196166215 heartbeat IPC: 0.455314 cumulative IPC: 0.454624 (Simulation time: 2 hr 51 min 46 sec) 
PAM Allow Rate: 73%
TH_L2PA: 106, l2miss_BW: 56, llc_miss_BW: 56
L2_PA_ratio set to: 89
TH_L2PA: 106, l2miss_BW: 57, llc_miss_BW: 57
L2_PA_ratio set to: 85
Heartbeat CPU 7 instructions: 90000007 cycles: 196358735 heartbeat IPC: 0.453865 cumulative IPC: 0.454177 (Simulation time: 2 hr 51 min 56 sec) 
PAM Allow Rate: 85%
TH_L2PA: 106, l2miss_BW: 57, llc_miss_BW: 57
L2_PA_ratio set to: 85
TH_L2PA: 106, l2miss_BW: 59, llc_miss_BW: 59
L2_PA_ratio set to: 79
TH_L2PA: 106, l2miss_BW: 56, llc_miss_BW: 56
L2_PA_ratio set to: 89
TH_L2PA: 106, l2miss_BW: 58, llc_miss_BW: 58
L2_PA_ratio set to: 82
TH_L2PA: 106, l2miss_BW: 58, llc_miss_BW: 58
L2_PA_ratio set to: 82
TH_L2PA: 106, l2miss_BW: 58, llc_miss_BW: 58
L2_PA_ratio set to: 82
TH_L2PA: 106, l2miss_BW: 57, llc_miss_BW: 57
L2_PA_ratio set to: 85
TH_L2PA: 106, l2miss_BW: 59, llc_miss_BW: 59
L2_PA_ratio set to: 79
TH_L2PA: 106, l2miss_BW: 56, llc_miss_BW: 56
L2_PA_ratio set to: 89
TH_L2PA: 106, l2miss_BW: 56, llc_miss_BW: 56
L2_PA_ratio set to: 89
TH_L2PA: 106, l2miss_BW: 56, llc_miss_BW: 56
L2_PA_ratio set to: 89
Heartbeat CPU 11 instructions: 90000007 cycles: 197436254 heartbeat IPC: 0.452105 cumulative IPC: 0.451694 (Simulation time: 2 hr 52 min 53 sec) 
PAM Allow Rate: 89%
TH_L2PA: 106, l2miss_BW: 57, llc_miss_BW: 57
L2_PA_ratio set to: 85
TH_L2PA: 106, l2miss_BW: 58, llc_miss_BW: 58
L2_PA_ratio set to: 82
TH_L2PA: 106, l2miss_BW: 60, llc_miss_BW: 60
L2_PA_ratio set to: 76
TH_L2PA: 106, l2miss_BW: 55, llc_miss_BW: 55
L2_PA_ratio set to: 92
TH_L2PA: 106, l2miss_BW: 58, llc_miss_BW: 58
L2_PA_ratio set to: 82
TH_L2PA: 106, l2miss_BW: 57, llc_miss_BW: 57
L2_PA_ratio set to: 85
TH_L2PA: 106, l2miss_BW: 57, llc_miss_BW: 57
L2_PA_ratio set to: 85
TH_L2PA: 106, l2miss_BW: 58, llc_miss_BW: 58
L2_PA_ratio set to: 82
TH_L2PA: 106, l2miss_BW: 57, llc_miss_BW: 57
L2_PA_ratio set to: 85
TH_L2PA: 106, l2miss_BW: 57, llc_miss_BW: 57
L2_PA_ratio set to: 85
TH_L2PA: 106, l2miss_BW: 58, llc_miss_BW: 58
L2_PA_ratio set to: 82
TH_L2PA: 106, l2miss_BW: 56, llc_miss_BW: 56
L2_PA_ratio set to: 89
TH_L2PA: 106, l2miss_BW: 59, llc_miss_BW: 59
L2_PA_ratio set to: 79
TH_L2PA: 106, l2miss_BW: 59, llc_miss_BW: 59
L2_PA_ratio set to: 79
TH_L2PA: 106, l2miss_BW: 56, llc_miss_BW: 56
L2_PA_ratio set to: 89
TH_L2PA: 106, l2miss_BW: 58, llc_miss_BW: 58
L2_PA_ratio set to: 82
TH_L2PA: 106, l2miss_BW: 60, llc_miss_BW: 60
L2_PA_ratio set to: 76
TH_L2PA: 106, l2miss_BW: 56, llc_miss_BW: 56
L2_PA_ratio set to: 89
TH_L2PA: 106, l2miss_BW: 59, llc_miss_BW: 59
L2_PA_ratio set to: 79
TH_L2PA: 106, l2miss_BW: 59, llc_miss_BW: 59
L2_PA_ratio set to: 79
TH_L2PA: 106, l2miss_BW: 57, llc_miss_BW: 57
L2_PA_ratio set to: 85
TH_L2PA: 106, l2miss_BW: 56, llc_miss_BW: 56
L2_PA_ratio set to: 89
TH_L2PA: 106, l2miss_BW: 58, llc_miss_BW: 58
L2_PA_ratio set to: 82
TH_L2PA: 106, l2miss_BW: 57, llc_miss_BW: 57
L2_PA_ratio set to: 85
TH_L2PA: 106, l2miss_BW: 59, llc_miss_BW: 59
L2_PA_ratio set to: 79
TH_L2PA: 106, l2miss_BW: 58, llc_miss_BW: 58
L2_PA_ratio set to: 82
TH_L2PA: 106, l2miss_BW: 56, llc_miss_BW: 56
L2_PA_ratio set to: 89
TH_L2PA: 106, l2miss_BW: 59, llc_miss_BW: 59
L2_PA_ratio set to: 79
TH_L2PA: 106, l2miss_BW: 59, llc_miss_BW: 59
L2_PA_ratio set to: 79
TH_L2PA: 106, l2miss_BW: 57, llc_miss_BW: 57
L2_PA_ratio set to: 85
TH_L2PA: 106, l2miss_BW: 57, llc_miss_BW: 57
L2_PA_ratio set to: 85
TH_L2PA: 106, l2miss_BW: 58, llc_miss_BW: 58
L2_PA_ratio set to: 82
TH_L2PA: 106, l2miss_BW: 58, llc_miss_BW: 58
L2_PA_ratio set to: 82
TH_L2PA: 106, l2miss_BW: 58, llc_miss_BW: 58
L2_PA_ratio set to: 82
TH_L2PA: 106, l2miss_BW: 58, llc_miss_BW: 58
L2_PA_ratio set to: 82
TH_L2PA: 106, l2miss_BW: 56, llc_miss_BW: 56
L2_PA_ratio set to: 89
TH_L2PA: 106, l2miss_BW: 59, llc_miss_BW: 59
L2_PA_ratio set to: 79
TH_L2PA: 106, l2miss_BW: 58, llc_miss_BW: 58
L2_PA_ratio set to: 82
TH_L2PA: 106, l2miss_BW: 57, llc_miss_BW: 57
L2_PA_ratio set to: 85
TH_L2PA: 106, l2miss_BW: 58, llc_miss_BW: 58
L2_PA_ratio set to: 82
TH_L2PA: 106, l2miss_BW: 58, llc_miss_BW: 58
L2_PA_ratio set to: 82
TH_L2PA: 106, l2miss_BW: 57, llc_miss_BW: 57
L2_PA_ratio set to: 85
TH_L2PA: 106, l2miss_BW: 56, llc_miss_BW: 56
L2_PA_ratio set to: 89
TH_L2PA: 106, l2miss_BW: 59, llc_miss_BW: 59
L2_PA_ratio set to: 79
TH_L2PA: 106, l2miss_BW: 57, llc_miss_BW: 57
L2_PA_ratio set to: 85
TH_L2PA: 106, l2miss_BW: 57, llc_miss_BW: 57
L2_PA_ratio set to: 85
TH_L2PA: 106, l2miss_BW: 58, llc_miss_BW: 58
L2_PA_ratio set to: 82
TH_L2PA: 106, l2miss_BW: 57, llc_miss_BW: 57
L2_PA_ratio set to: 85
TH_L2PA: 106, l2miss_BW: 58, llc_miss_BW: 58
L2_PA_ratio set to: 82
TH_L2PA: 106, l2miss_BW: 58, llc_miss_BW: 58
L2_PA_ratio set to: 82
TH_L2PA: 106, l2miss_BW: 59, llc_miss_BW: 59
L2_PA_ratio set to: 79
TH_L2PA: 106, l2miss_BW: 58, llc_miss_BW: 58
L2_PA_ratio set to: 82
TH_L2PA: 106, l2miss_BW: 56, llc_miss_BW: 56
L2_PA_ratio set to: 89
TH_L2PA: 106, l2miss_BW: 58, llc_miss_BW: 58
L2_PA_ratio set to: 82
TH_L2PA: 106, l2miss_BW: 57, llc_miss_BW: 57
L2_PA_ratio set to: 85
TH_L2PA: 106, l2miss_BW: 57, llc_miss_BW: 57
L2_PA_ratio set to: 85
TH_L2PA: 106, l2miss_BW: 58, llc_miss_BW: 58
L2_PA_ratio set to: 82
TH_L2PA: 106, l2miss_BW: 57, llc_miss_BW: 57
L2_PA_ratio set to: 85
TH_L2PA: 106, l2miss_BW: 58, llc_miss_BW: 58
L2_PA_ratio set to: 82
TH_L2PA: 106, l2miss_BW: 59, llc_miss_BW: 59
L2_PA_ratio set to: 79
TH_L2PA: 106, l2miss_BW: 58, llc_miss_BW: 58
L2_PA_ratio set to: 82
TH_L2PA: 106, l2miss_BW: 59, llc_miss_BW: 59
L2_PA_ratio set to: 79
TH_L2PA: 106, l2miss_BW: 56, llc_miss_BW: 56
L2_PA_ratio set to: 89
TH_L2PA: 106, l2miss_BW: 58, llc_miss_BW: 58
L2_PA_ratio set to: 82
TH_L2PA: 106, l2miss_BW: 57, llc_miss_BW: 57
L2_PA_ratio set to: 85
TH_L2PA: 106, l2miss_BW: 57, llc_miss_BW: 57
L2_PA_ratio set to: 85
TH_L2PA: 106, l2miss_BW: 57, llc_miss_BW: 57
L2_PA_ratio set to: 85
TH_L2PA: 106, l2miss_BW: 57, llc_miss_BW: 57
L2_PA_ratio set to: 85
TH_L2PA: 106, l2miss_BW: 58, llc_miss_BW: 58
L2_PA_ratio set to: 82
TH_L2PA: 106, l2miss_BW: 58, llc_miss_BW: 58
L2_PA_ratio set to: 82
TH_L2PA: 106, l2miss_BW: 56, llc_miss_BW: 56
L2_PA_ratio set to: 89
TH_L2PA: 106, l2miss_BW: 57, llc_miss_BW: 57
L2_PA_ratio set to: 85
TH_L2PA: 106, l2miss_BW: 58, llc_miss_BW: 58
L2_PA_ratio set to: 82
TH_L2PA: 106, l2miss_BW: 59, llc_miss_BW: 59
L2_PA_ratio set to: 79
TH_L2PA: 106, l2miss_BW: 58, llc_miss_BW: 58
L2_PA_ratio set to: 82
TH_L2PA: 106, l2miss_BW: 57, llc_miss_BW: 57
L2_PA_ratio set to: 85
TH_L2PA: 106, l2miss_BW: 56, llc_miss_BW: 56
L2_PA_ratio set to: 89
TH_L2PA: 106, l2miss_BW: 57, llc_miss_BW: 57
L2_PA_ratio set to: 85
TH_L2PA: 106, l2miss_BW: 60, llc_miss_BW: 60
L2_PA_ratio set to: 76
TH_L2PA: 106, l2miss_BW: 57, llc_miss_BW: 57
L2_PA_ratio set to: 85
TH_L2PA: 106, l2miss_BW: 58, llc_miss_BW: 58
L2_PA_ratio set to: 82
TH_L2PA: 106, l2miss_BW: 57, llc_miss_BW: 57
L2_PA_ratio set to: 85
TH_L2PA: 106, l2miss_BW: 57, llc_miss_BW: 57
L2_PA_ratio set to: 85
TH_L2PA: 106, l2miss_BW: 58, llc_miss_BW: 58
L2_PA_ratio set to: 82
TH_L2PA: 106, l2miss_BW: 58, llc_miss_BW: 58
L2_PA_ratio set to: 82
TH_L2PA: 106, l2miss_BW: 58, llc_miss_BW: 58
L2_PA_ratio set to: 82
TH_L2PA: 106, l2miss_BW: 57, llc_miss_BW: 57
L2_PA_ratio set to: 85
TH_L2PA: 106, l2miss_BW: 55, llc_miss_BW: 55
L2_PA_ratio set to: 92
TH_L2PA: 106, l2miss_BW: 57, llc_miss_BW: 57
L2_PA_ratio set to: 85
TH_L2PA: 106, l2miss_BW: 57, llc_miss_BW: 57
L2_PA_ratio set to: 85
TH_L2PA: 106, l2miss_BW: 58, llc_miss_BW: 58
L2_PA_ratio set to: 82
TH_L2PA: 106, l2miss_BW: 59, llc_miss_BW: 59
L2_PA_ratio set to: 79
TH_L2PA: 106, l2miss_BW: 56, llc_miss_BW: 56
L2_PA_ratio set to: 89
TH_L2PA: 106, l2miss_BW: 57, llc_miss_BW: 57
L2_PA_ratio set to: 85
TH_L2PA: 106, l2miss_BW: 60, llc_miss_BW: 60
L2_PA_ratio set to: 76
TH_L2PA: 106, l2miss_BW: 57, llc_miss_BW: 57
L2_PA_ratio set to: 85
TH_L2PA: 106, l2miss_BW: 57, llc_miss_BW: 57
L2_PA_ratio set to: 85
TH_L2PA: 106, l2miss_BW: 55, llc_miss_BW: 55
L2_PA_ratio set to: 92
TH_L2PA: 106, l2miss_BW: 56, llc_miss_BW: 56
L2_PA_ratio set to: 89
