fieldwidths_channel: 1
DRAMSim3_DRAM init
Initialized CXL memory with 8 channels
tCXL 0 tRD 1 tWR 1
Init LLC size 24576KB
PAM Threshold: 9GB/s
Init cpu0_L2C size 512KB
Init cpu1_L2C size 512KB
Init cpu2_L2C size 512KB
Init cpu3_L2C size 512KB
Init cpu4_L2C size 512KB
Init cpu5_L2C size 512KB
Init cpu6_L2C size 512KB
Init cpu7_L2C size 512KB
Init cpu8_L2C size 512KB
Init cpu9_L2C size 512KB
Init cpu10_L2C size 512KB
Init cpu11_L2C size 512KB
Init cpu0_L1D size 32KB
Init cpu1_L1D size 32KB
Init cpu2_L1D size 32KB
Init cpu3_L1D size 32KB
Init cpu4_L1D size 32KB
Init cpu5_L1D size 32KB
Init cpu6_L1D size 32KB
Init cpu7_L1D size 32KB
Init cpu8_L1D size 32KB
Init cpu9_L1D size 32KB
Init cpu10_L1D size 32KB
Init cpu11_L1D size 32KB
Init cpu0_STLB size 192KB
Init cpu1_STLB size 192KB
Init cpu2_STLB size 192KB
Init cpu3_STLB size 192KB
Init cpu4_STLB size 192KB
Init cpu5_STLB size 192KB
Init cpu6_STLB size 192KB
Init cpu7_STLB size 192KB
Init cpu8_STLB size 192KB
Init cpu9_STLB size 192KB
Init cpu10_STLB size 192KB
Init cpu11_STLB size 192KB
Init cpu0_L1I size 32KB
Init cpu0_ITLB size 4KB
Init cpu0_DTLB size 4KB
Init cpu1_L1I size 32KB
Init cpu1_ITLB size 4KB
Init cpu1_DTLB size 4KB
Init cpu2_L1I size 32KB
Init cpu2_ITLB size 4KB
Init cpu2_DTLB size 4KB
Init cpu3_L1I size 32KB
Init cpu3_ITLB size 4KB
Init cpu3_DTLB size 4KB
Init cpu4_L1I size 32KB
Init cpu4_ITLB size 4KB
Init cpu4_DTLB size 4KB
Init cpu5_L1I size 32KB
Init cpu5_ITLB size 4KB
Init cpu5_DTLB size 4KB
Init cpu6_L1I size 32KB
Init cpu6_ITLB size 4KB
Init cpu6_DTLB size 4KB
Init cpu7_L1I size 32KB
Init cpu7_ITLB size 4KB
Init cpu7_DTLB size 4KB
Init cpu8_L1I size 32KB
Init cpu8_ITLB size 4KB
Init cpu8_DTLB size 4KB
Init cpu9_L1I size 32KB
Init cpu9_ITLB size 4KB
Init cpu9_DTLB size 4KB
Init cpu10_L1I size 32KB
Init cpu10_ITLB size 4KB
Init cpu10_DTLB size 4KB
Init cpu11_L1I size 32KB
Init cpu11_ITLB size 4KB
Init cpu11_DTLB size 4KB

*** ChampSim Multicore Out-of-Order Simulator ***

Warmup Instructions: 1000000
Simulation Instructions: 200000000
Number of CPUs: 12

VirtualMemory physical capacity: 274876854272 num_ppages: 67108607
VirtualMemory page size: 4096 log2_page_size: 12
starting with L2 parallel access: 1

All CPUs run trace-0
CPU 0 runs /nethome/acho44/coaxial_AE/TRACES/STREAM_TRACES/stream_copy.trace.xz
CPU 1 runs /nethome/acho44/coaxial_AE/TRACES/STREAM_TRACES/stream_copy.trace.xz
CPU 2 runs /nethome/acho44/coaxial_AE/TRACES/STREAM_TRACES/stream_copy.trace.xz
CPU 3 runs /nethome/acho44/coaxial_AE/TRACES/STREAM_TRACES/stream_copy.trace.xz
CPU 4 runs /nethome/acho44/coaxial_AE/TRACES/STREAM_TRACES/stream_copy.trace.xz
CPU 5 runs /nethome/acho44/coaxial_AE/TRACES/STREAM_TRACES/stream_copy.trace.xz
CPU 6 runs /nethome/acho44/coaxial_AE/TRACES/STREAM_TRACES/stream_copy.trace.xz
CPU 7 runs /nethome/acho44/coaxial_AE/TRACES/STREAM_TRACES/stream_copy.trace.xz
CPU 8 runs /nethome/acho44/coaxial_AE/TRACES/STREAM_TRACES/stream_copy.trace.xz
CPU 9 runs /nethome/acho44/coaxial_AE/TRACES/STREAM_TRACES/stream_copy.trace.xz
CPU 10 runs /nethome/acho44/coaxial_AE/TRACES/STREAM_TRACES/stream_copy.trace.xz
CPU 11 runs /nethome/acho44/coaxial_AE/TRACES/STREAM_TRACES/stream_copy.trace.xz
Basic BTB sets: 1024 ways: 8 indirect buffer size: 1536 RAS size: 32
Basic BTB sets: 1024 ways: 8 indirect buffer size: 1536 RAS size: 32
Basic BTB sets: 1024 ways: 8 indirect buffer size: 1536 RAS size: 32
Basic BTB sets: 1024 ways: 8 indirect buffer size: 1536 RAS size: 32
Basic BTB sets: 1024 ways: 8 indirect buffer size: 1536 RAS size: 32
Basic BTB sets: 1024 ways: 8 indirect buffer size: 1536 RAS size: 32
Basic BTB sets: 1024 ways: 8 indirect buffer size: 1536 RAS size: 32
Basic BTB sets: 1024 ways: 8 indirect buffer size: 1536 RAS size: 32
Basic BTB sets: 1024 ways: 8 indirect buffer size: 1536 RAS size: 32
Basic BTB sets: 1024 ways: 8 indirect buffer size: 1536 RAS size: 32
Basic BTB sets: 1024 ways: 8 indirect buffer size: 1536 RAS size: 32
Basic BTB sets: 1024 ways: 8 indirect buffer size: 1536 RAS size: 32
CPU 0 next line instruction prefetcher
CPU 0 next line instruction prefetcher
CPU 0 next line instruction prefetcher
CPU 0 next line instruction prefetcher
CPU 0 next line instruction prefetcher
CPU 0 next line instruction prefetcher
CPU 0 next line instruction prefetcher
CPU 0 next line instruction prefetcher
CPU 0 next line instruction prefetcher
CPU 0 next line instruction prefetcher
CPU 0 next line instruction prefetcher
CPU 0 next line instruction prefetcher
cpu11_L2C IP-based stride prefetcher
cpu10_L2C IP-based stride prefetcher
cpu9_L2C IP-based stride prefetcher
cpu8_L2C IP-based stride prefetcher
cpu7_L2C IP-based stride prefetcher
cpu6_L2C IP-based stride prefetcher
cpu5_L2C IP-based stride prefetcher
cpu4_L2C IP-based stride prefetcher
cpu3_L2C IP-based stride prefetcher
cpu2_L2C IP-based stride prefetcher
cpu1_L2C IP-based stride prefetcher
cpu0_L2C IP-based stride prefetcher
WARNING: The extended signature CACHE::prefetch_line(ip, base_addr, pf_addr, fill_this_level, prefetch_metadata) is deprecated.
WARNING: Use CACHE::prefetch_line(pf_addr, fill_this_level, prefetch_metadata) instead.

Warmup complete CPU 0 instructions: 1000102 cycles: 400118 (Simulation time: 0 hr 0 min 19 sec) 
Warmup complete CPU 1 instructions: 1000054 cycles: 400118 (Simulation time: 0 hr 0 min 19 sec) 
Warmup complete CPU 2 instructions: 1000014 cycles: 400118 (Simulation time: 0 hr 0 min 19 sec) 
Warmup complete CPU 3 instructions: 1000006 cycles: 400118 (Simulation time: 0 hr 0 min 19 sec) 
Warmup complete CPU 4 instructions: 1000054 cycles: 400118 (Simulation time: 0 hr 0 min 19 sec) 
Warmup complete CPU 5 instructions: 1000046 cycles: 400118 (Simulation time: 0 hr 0 min 19 sec) 
Warmup complete CPU 6 instructions: 1000054 cycles: 400118 (Simulation time: 0 hr 0 min 19 sec) 
Warmup complete CPU 7 instructions: 1000054 cycles: 400118 (Simulation time: 0 hr 0 min 19 sec) 
Warmup complete CPU 8 instructions: 1000046 cycles: 400118 (Simulation time: 0 hr 0 min 19 sec) 
Warmup complete CPU 9 instructions: 1000046 cycles: 400118 (Simulation time: 0 hr 0 min 19 sec) 
Warmup complete CPU 10 instructions: 1000054 cycles: 400118 (Simulation time: 0 hr 0 min 19 sec) 
Warmup complete CPU 11 instructions: 1000006 cycles: 400118 (Simulation time: 0 hr 0 min 19 sec) 

Heartbeat CPU 0 instructions: 10000003 cycles: 51914126 heartbeat IPC: 0.192626 cumulative IPC: 0.174708 (Simulation time: 0 hr 30 min 52 sec) 
Heartbeat CPU 4 instructions: 10000007 cycles: 51915616 heartbeat IPC: 0.19262 cumulative IPC: 0.174704 (Simulation time: 0 hr 30 min 52 sec) 
Heartbeat CPU 8 instructions: 10000007 cycles: 51916166 heartbeat IPC: 0.192618 cumulative IPC: 0.174702 (Simulation time: 0 hr 30 min 52 sec) 
Heartbeat CPU 10 instructions: 10000007 cycles: 51917244 heartbeat IPC: 0.192614 cumulative IPC: 0.174698 (Simulation time: 0 hr 30 min 52 sec) 
Heartbeat CPU 5 instructions: 10000007 cycles: 51917837 heartbeat IPC: 0.192612 cumulative IPC: 0.174696 (Simulation time: 0 hr 30 min 52 sec) 
Heartbeat CPU 1 instructions: 10000007 cycles: 51918298 heartbeat IPC: 0.19261 cumulative IPC: 0.174695 (Simulation time: 0 hr 30 min 52 sec) 
Heartbeat CPU 9 instructions: 10000007 cycles: 51919861 heartbeat IPC: 0.192605 cumulative IPC: 0.17469 (Simulation time: 0 hr 30 min 52 sec) 
Heartbeat CPU 2 instructions: 10000007 cycles: 51921932 heartbeat IPC: 0.192597 cumulative IPC: 0.174683 (Simulation time: 0 hr 30 min 52 sec) 
Heartbeat CPU 6 instructions: 10000007 cycles: 51923009 heartbeat IPC: 0.192593 cumulative IPC: 0.174679 (Simulation time: 0 hr 30 min 52 sec) 
Heartbeat CPU 7 instructions: 10000001 cycles: 51923980 heartbeat IPC: 0.192589 cumulative IPC: 0.174675 (Simulation time: 0 hr 30 min 52 sec) 
Heartbeat CPU 11 instructions: 10000007 cycles: 51924936 heartbeat IPC: 0.192586 cumulative IPC: 0.174673 (Simulation time: 0 hr 30 min 52 sec) 
Heartbeat CPU 3 instructions: 10000007 cycles: 51925443 heartbeat IPC: 0.192584 cumulative IPC: 0.174671 (Simulation time: 0 hr 30 min 52 sec) 
Heartbeat CPU 0 instructions: 20000007 cycles: 109187968 heartbeat IPC: 0.1746 cumulative IPC: 0.174651 (Simulation time: 1 hr 5 min 3 sec) 
Heartbeat CPU 4 instructions: 20000007 cycles: 109189026 heartbeat IPC: 0.174601 cumulative IPC: 0.17465 (Simulation time: 1 hr 5 min 3 sec) 
Heartbeat CPU 8 instructions: 20000007 cycles: 109191507 heartbeat IPC: 0.174595 cumulative IPC: 0.174646 (Simulation time: 1 hr 5 min 3 sec) 
Heartbeat CPU 10 instructions: 20000007 cycles: 109193773 heartbeat IPC: 0.174592 cumulative IPC: 0.174642 (Simulation time: 1 hr 5 min 3 sec) 
Heartbeat CPU 9 instructions: 20000007 cycles: 109196120 heartbeat IPC: 0.174592 cumulative IPC: 0.174638 (Simulation time: 1 hr 5 min 3 sec) 
Heartbeat CPU 5 instructions: 20000007 cycles: 109197115 heartbeat IPC: 0.174583 cumulative IPC: 0.174637 (Simulation time: 1 hr 5 min 3 sec) 
Heartbeat CPU 1 instructions: 20000007 cycles: 109198689 heartbeat IPC: 0.17458 cumulative IPC: 0.174634 (Simulation time: 1 hr 5 min 4 sec) 
Heartbeat CPU 2 instructions: 20000005 cycles: 109198830 heartbeat IPC: 0.17459 cumulative IPC: 0.174634 (Simulation time: 1 hr 5 min 4 sec) 
Heartbeat CPU 6 instructions: 20000007 cycles: 109199652 heartbeat IPC: 0.174591 cumulative IPC: 0.174633 (Simulation time: 1 hr 5 min 4 sec) 
Heartbeat CPU 7 instructions: 20000007 cycles: 109200364 heartbeat IPC: 0.174592 cumulative IPC: 0.174632 (Simulation time: 1 hr 5 min 4 sec) 
Heartbeat CPU 11 instructions: 20000007 cycles: 109201319 heartbeat IPC: 0.174592 cumulative IPC: 0.17463 (Simulation time: 1 hr 5 min 4 sec) 
Heartbeat CPU 3 instructions: 20000007 cycles: 109202127 heartbeat IPC: 0.174591 cumulative IPC: 0.174629 (Simulation time: 1 hr 5 min 4 sec) 
Heartbeat CPU 0 instructions: 30000007 cycles: 166454932 heartbeat IPC: 0.174621 cumulative IPC: 0.174641 (Simulation time: 1 hr 39 min 7 sec) 
Heartbeat CPU 4 instructions: 30000007 cycles: 166455817 heartbeat IPC: 0.174621 cumulative IPC: 0.17464 (Simulation time: 1 hr 39 min 7 sec) 
Heartbeat CPU 8 instructions: 30000007 cycles: 166456641 heartbeat IPC: 0.174626 cumulative IPC: 0.174639 (Simulation time: 1 hr 39 min 7 sec) 
Heartbeat CPU 10 instructions: 30000007 cycles: 166459686 heartbeat IPC: 0.174624 cumulative IPC: 0.174636 (Simulation time: 1 hr 39 min 7 sec) 
Heartbeat CPU 9 instructions: 30000007 cycles: 166460615 heartbeat IPC: 0.174628 cumulative IPC: 0.174635 (Simulation time: 1 hr 39 min 7 sec) 
Heartbeat CPU 5 instructions: 30000007 cycles: 166461271 heartbeat IPC: 0.174629 cumulative IPC: 0.174634 (Simulation time: 1 hr 39 min 7 sec) 
Heartbeat CPU 1 instructions: 30000007 cycles: 166463040 heartbeat IPC: 0.174629 cumulative IPC: 0.174632 (Simulation time: 1 hr 39 min 7 sec) 
Heartbeat CPU 2 instructions: 30000007 cycles: 166463966 heartbeat IPC: 0.174626 cumulative IPC: 0.174632 (Simulation time: 1 hr 39 min 7 sec) 
Heartbeat CPU 6 instructions: 30000007 cycles: 166464772 heartbeat IPC: 0.174626 cumulative IPC: 0.17463 (Simulation time: 1 hr 39 min 7 sec) 
Heartbeat CPU 7 instructions: 30000007 cycles: 166465533 heartbeat IPC: 0.174626 cumulative IPC: 0.17463 (Simulation time: 1 hr 39 min 7 sec) 
Heartbeat CPU 11 instructions: 30000007 cycles: 166466819 heartbeat IPC: 0.174625 cumulative IPC: 0.174629 (Simulation time: 1 hr 39 min 7 sec) 
Heartbeat CPU 3 instructions: 30000007 cycles: 166467574 heartbeat IPC: 0.174625 cumulative IPC: 0.174628 (Simulation time: 1 hr 39 min 7 sec) 
Heartbeat CPU 0 instructions: 40000007 cycles: 223705700 heartbeat IPC: 0.17467 cumulative IPC: 0.174648 (Simulation time: 2 hr 13 min 15 sec) 
Heartbeat CPU 4 instructions: 40000007 cycles: 223706847 heartbeat IPC: 0.174669 cumulative IPC: 0.174647 (Simulation time: 2 hr 13 min 15 sec) 
Heartbeat CPU 8 instructions: 40000007 cycles: 223710053 heartbeat IPC: 0.174662 cumulative IPC: 0.174645 (Simulation time: 2 hr 13 min 15 sec) 
Heartbeat CPU 10 instructions: 40000005 cycles: 223711147 heartbeat IPC: 0.174668 cumulative IPC: 0.174644 (Simulation time: 2 hr 13 min 15 sec) 
Heartbeat CPU 9 instructions: 40000007 cycles: 223711761 heartbeat IPC: 0.174669 cumulative IPC: 0.174644 (Simulation time: 2 hr 13 min 16 sec) 
Heartbeat CPU 5 instructions: 40000007 cycles: 223712606 heartbeat IPC: 0.174668 cumulative IPC: 0.174643 (Simulation time: 2 hr 13 min 16 sec) 
Heartbeat CPU 1 instructions: 40000007 cycles: 223715025 heartbeat IPC: 0.174666 cumulative IPC: 0.174641 (Simulation time: 2 hr 13 min 16 sec) 
Heartbeat CPU 2 instructions: 40000007 cycles: 223716092 heartbeat IPC: 0.174666 cumulative IPC: 0.17464 (Simulation time: 2 hr 13 min 16 sec) 
Heartbeat CPU 6 instructions: 40000007 cycles: 223716747 heartbeat IPC: 0.174666 cumulative IPC: 0.17464 (Simulation time: 2 hr 13 min 16 sec) 
Heartbeat CPU 7 instructions: 40000007 cycles: 223717340 heartbeat IPC: 0.174667 cumulative IPC: 0.174639 (Simulation time: 2 hr 13 min 16 sec) 
Heartbeat CPU 11 instructions: 40000007 cycles: 223717462 heartbeat IPC: 0.174671 cumulative IPC: 0.174639 (Simulation time: 2 hr 13 min 16 sec) 
Heartbeat CPU 3 instructions: 40000007 cycles: 223718197 heartbeat IPC: 0.174671 cumulative IPC: 0.174639 (Simulation time: 2 hr 13 min 16 sec) 
Heartbeat CPU 0 instructions: 50000007 cycles: 280939918 heartbeat IPC: 0.174721 cumulative IPC: 0.174663 (Simulation time: 2 hr 47 min 25 sec) 
Heartbeat CPU 4 instructions: 50000007 cycles: 280942378 heartbeat IPC: 0.174717 cumulative IPC: 0.174662 (Simulation time: 2 hr 47 min 25 sec) 
Heartbeat CPU 8 instructions: 50000007 cycles: 280942789 heartbeat IPC: 0.174725 cumulative IPC: 0.174661 (Simulation time: 2 hr 47 min 25 sec) 
Heartbeat CPU 10 instructions: 50000007 cycles: 280943293 heartbeat IPC: 0.174727 cumulative IPC: 0.174661 (Simulation time: 2 hr 47 min 25 sec) 
Heartbeat CPU 9 instructions: 50000007 cycles: 280943427 heartbeat IPC: 0.174728 cumulative IPC: 0.174661 (Simulation time: 2 hr 47 min 25 sec) 
Heartbeat CPU 5 instructions: 50000007 cycles: 280943995 heartbeat IPC: 0.174729 cumulative IPC: 0.174661 (Simulation time: 2 hr 47 min 25 sec) 
Heartbeat CPU 1 instructions: 50000007 cycles: 280945113 heartbeat IPC: 0.174733 cumulative IPC: 0.17466 (Simulation time: 2 hr 47 min 25 sec) 
Heartbeat CPU 2 instructions: 50000007 cycles: 280948261 heartbeat IPC: 0.174727 cumulative IPC: 0.174658 (Simulation time: 2 hr 47 min 25 sec) 
Heartbeat CPU 6 instructions: 50000007 cycles: 280951647 heartbeat IPC: 0.174719 cumulative IPC: 0.174656 (Simulation time: 2 hr 47 min 26 sec) 
Heartbeat CPU 7 instructions: 50000007 cycles: 280954111 heartbeat IPC: 0.174713 cumulative IPC: 0.174654 (Simulation time: 2 hr 47 min 26 sec) 
Heartbeat CPU 11 instructions: 50000007 cycles: 280954375 heartbeat IPC: 0.174712 cumulative IPC: 0.174654 (Simulation time: 2 hr 47 min 26 sec) 
Heartbeat CPU 3 instructions: 50000007 cycles: 280954923 heartbeat IPC: 0.174713 cumulative IPC: 0.174654 (Simulation time: 2 hr 47 min 26 sec) 
