fieldwidths_channel: 1
DRAMSim3_DRAM init
Initialized CXL memory with 8 channels
tCXL 0 tRD 1 tWR 1
Init LLC size 24576KB
PAM Threshold: 9GB/s
Init cpu0_L2C size 512KB
Init cpu1_L2C size 512KB
Init cpu2_L2C size 512KB
Init cpu3_L2C size 512KB
Init cpu4_L2C size 512KB
Init cpu5_L2C size 512KB
Init cpu6_L2C size 512KB
Init cpu7_L2C size 512KB
Init cpu8_L2C size 512KB
Init cpu9_L2C size 512KB
Init cpu10_L2C size 512KB
Init cpu11_L2C size 512KB
Init cpu0_L1D size 32KB
Init cpu1_L1D size 32KB
Init cpu2_L1D size 32KB
Init cpu3_L1D size 32KB
Init cpu4_L1D size 32KB
Init cpu5_L1D size 32KB
Init cpu6_L1D size 32KB
Init cpu7_L1D size 32KB
Init cpu8_L1D size 32KB
Init cpu9_L1D size 32KB
Init cpu10_L1D size 32KB
Init cpu11_L1D size 32KB
Init cpu0_STLB size 192KB
Init cpu1_STLB size 192KB
Init cpu2_STLB size 192KB
Init cpu3_STLB size 192KB
Init cpu4_STLB size 192KB
Init cpu5_STLB size 192KB
Init cpu6_STLB size 192KB
Init cpu7_STLB size 192KB
Init cpu8_STLB size 192KB
Init cpu9_STLB size 192KB
Init cpu10_STLB size 192KB
Init cpu11_STLB size 192KB
Init cpu0_L1I size 32KB
Init cpu0_ITLB size 4KB
Init cpu0_DTLB size 4KB
Init cpu1_L1I size 32KB
Init cpu1_ITLB size 4KB
Init cpu1_DTLB size 4KB
Init cpu2_L1I size 32KB
Init cpu2_ITLB size 4KB
Init cpu2_DTLB size 4KB
Init cpu3_L1I size 32KB
Init cpu3_ITLB size 4KB
Init cpu3_DTLB size 4KB
Init cpu4_L1I size 32KB
Init cpu4_ITLB size 4KB
Init cpu4_DTLB size 4KB
Init cpu5_L1I size 32KB
Init cpu5_ITLB size 4KB
Init cpu5_DTLB size 4KB
Init cpu6_L1I size 32KB
Init cpu6_ITLB size 4KB
Init cpu6_DTLB size 4KB
Init cpu7_L1I size 32KB
Init cpu7_ITLB size 4KB
Init cpu7_DTLB size 4KB
Init cpu8_L1I size 32KB
Init cpu8_ITLB size 4KB
Init cpu8_DTLB size 4KB
Init cpu9_L1I size 32KB
Init cpu9_ITLB size 4KB
Init cpu9_DTLB size 4KB
Init cpu10_L1I size 32KB
Init cpu10_ITLB size 4KB
Init cpu10_DTLB size 4KB
Init cpu11_L1I size 32KB
Init cpu11_ITLB size 4KB
Init cpu11_DTLB size 4KB

*** ChampSim Multicore Out-of-Order Simulator ***

Warmup Instructions: 1000000
Simulation Instructions: 200000000
Number of CPUs: 12

VirtualMemory physical capacity: 274876854272 num_ppages: 67108607
VirtualMemory page size: 4096 log2_page_size: 12
starting with L2 parallel access: 1

All CPUs run trace-0
CPU 0 runs /nethome/acho44/coaxial_AE/TRACES/STREAM_TRACES/stream_add.trace.xz
CPU 1 runs /nethome/acho44/coaxial_AE/TRACES/STREAM_TRACES/stream_add.trace.xz
CPU 2 runs /nethome/acho44/coaxial_AE/TRACES/STREAM_TRACES/stream_add.trace.xz
CPU 3 runs /nethome/acho44/coaxial_AE/TRACES/STREAM_TRACES/stream_add.trace.xz
CPU 4 runs /nethome/acho44/coaxial_AE/TRACES/STREAM_TRACES/stream_add.trace.xz
CPU 5 runs /nethome/acho44/coaxial_AE/TRACES/STREAM_TRACES/stream_add.trace.xz
CPU 6 runs /nethome/acho44/coaxial_AE/TRACES/STREAM_TRACES/stream_add.trace.xz
CPU 7 runs /nethome/acho44/coaxial_AE/TRACES/STREAM_TRACES/stream_add.trace.xz
CPU 8 runs /nethome/acho44/coaxial_AE/TRACES/STREAM_TRACES/stream_add.trace.xz
CPU 9 runs /nethome/acho44/coaxial_AE/TRACES/STREAM_TRACES/stream_add.trace.xz
CPU 10 runs /nethome/acho44/coaxial_AE/TRACES/STREAM_TRACES/stream_add.trace.xz
CPU 11 runs /nethome/acho44/coaxial_AE/TRACES/STREAM_TRACES/stream_add.trace.xz
Basic BTB sets: 1024 ways: 8 indirect buffer size: 1536 RAS size: 32
Basic BTB sets: 1024 ways: 8 indirect buffer size: 1536 RAS size: 32
Basic BTB sets: 1024 ways: 8 indirect buffer size: 1536 RAS size: 32
Basic BTB sets: 1024 ways: 8 indirect buffer size: 1536 RAS size: 32
Basic BTB sets: 1024 ways: 8 indirect buffer size: 1536 RAS size: 32
Basic BTB sets: 1024 ways: 8 indirect buffer size: 1536 RAS size: 32
Basic BTB sets: 1024 ways: 8 indirect buffer size: 1536 RAS size: 32
Basic BTB sets: 1024 ways: 8 indirect buffer size: 1536 RAS size: 32
Basic BTB sets: 1024 ways: 8 indirect buffer size: 1536 RAS size: 32
Basic BTB sets: 1024 ways: 8 indirect buffer size: 1536 RAS size: 32
Basic BTB sets: 1024 ways: 8 indirect buffer size: 1536 RAS size: 32
Basic BTB sets: 1024 ways: 8 indirect buffer size: 1536 RAS size: 32
CPU 0 next line instruction prefetcher
CPU 0 next line instruction prefetcher
CPU 0 next line instruction prefetcher
CPU 0 next line instruction prefetcher
CPU 0 next line instruction prefetcher
CPU 0 next line instruction prefetcher
CPU 0 next line instruction prefetcher
CPU 0 next line instruction prefetcher
CPU 0 next line instruction prefetcher
CPU 0 next line instruction prefetcher
CPU 0 next line instruction prefetcher
CPU 0 next line instruction prefetcher
cpu11_L2C IP-based stride prefetcher
cpu10_L2C IP-based stride prefetcher
cpu9_L2C IP-based stride prefetcher
cpu8_L2C IP-based stride prefetcher
cpu7_L2C IP-based stride prefetcher
cpu6_L2C IP-based stride prefetcher
cpu5_L2C IP-based stride prefetcher
cpu4_L2C IP-based stride prefetcher
cpu3_L2C IP-based stride prefetcher
cpu2_L2C IP-based stride prefetcher
cpu1_L2C IP-based stride prefetcher
cpu0_L2C IP-based stride prefetcher
WARNING: The extended signature CACHE::prefetch_line(ip, base_addr, pf_addr, fill_this_level, prefetch_metadata) is deprecated.
WARNING: Use CACHE::prefetch_line(pf_addr, fill_this_level, prefetch_metadata) instead.

Warmup complete CPU 0 instructions: 1000069 cycles: 333461 (Simulation time: 0 hr 0 min 24 sec) 
Warmup complete CPU 1 instructions: 1000069 cycles: 333461 (Simulation time: 0 hr 0 min 24 sec) 
Warmup complete CPU 2 instructions: 1000054 cycles: 333461 (Simulation time: 0 hr 0 min 24 sec) 
Warmup complete CPU 3 instructions: 1000006 cycles: 333461 (Simulation time: 0 hr 0 min 24 sec) 
Warmup complete CPU 4 instructions: 1000069 cycles: 333461 (Simulation time: 0 hr 0 min 24 sec) 
Warmup complete CPU 5 instructions: 1000069 cycles: 333461 (Simulation time: 0 hr 0 min 24 sec) 
Warmup complete CPU 6 instructions: 1000078 cycles: 333461 (Simulation time: 0 hr 0 min 24 sec) 
Warmup complete CPU 7 instructions: 1000118 cycles: 333461 (Simulation time: 0 hr 0 min 24 sec) 
Warmup complete CPU 8 instructions: 1000021 cycles: 333461 (Simulation time: 0 hr 0 min 24 sec) 
Warmup complete CPU 9 instructions: 1000062 cycles: 333461 (Simulation time: 0 hr 0 min 24 sec) 
Warmup complete CPU 10 instructions: 1000110 cycles: 333461 (Simulation time: 0 hr 0 min 24 sec) 
Warmup complete CPU 11 instructions: 1000022 cycles: 333461 (Simulation time: 0 hr 0 min 24 sec) 

Heartbeat CPU 7 instructions: 10000007 cycles: 56594906 heartbeat IPC: 0.176694 cumulative IPC: 0.159965 (Simulation time: 0 hr 32 min 51 sec) 
Heartbeat CPU 10 instructions: 10000007 cycles: 56597472 heartbeat IPC: 0.176686 cumulative IPC: 0.159958 (Simulation time: 0 hr 32 min 51 sec) 
Heartbeat CPU 0 instructions: 10000007 cycles: 56598529 heartbeat IPC: 0.176683 cumulative IPC: 0.159956 (Simulation time: 0 hr 32 min 51 sec) 
Heartbeat CPU 6 instructions: 10000007 cycles: 56601562 heartbeat IPC: 0.176674 cumulative IPC: 0.159947 (Simulation time: 0 hr 32 min 51 sec) 
Heartbeat CPU 11 instructions: 10000005 cycles: 56604133 heartbeat IPC: 0.176666 cumulative IPC: 0.159941 (Simulation time: 0 hr 32 min 51 sec) 
Heartbeat CPU 2 instructions: 10000005 cycles: 56604517 heartbeat IPC: 0.176664 cumulative IPC: 0.159939 (Simulation time: 0 hr 32 min 51 sec) 
Heartbeat CPU 3 instructions: 10000007 cycles: 56605896 heartbeat IPC: 0.17666 cumulative IPC: 0.159936 (Simulation time: 0 hr 32 min 51 sec) 
Heartbeat CPU 1 instructions: 10000007 cycles: 56609025 heartbeat IPC: 0.17665 cumulative IPC: 0.159926 (Simulation time: 0 hr 32 min 51 sec) 
Heartbeat CPU 5 instructions: 10000007 cycles: 56611539 heartbeat IPC: 0.176643 cumulative IPC: 0.159919 (Simulation time: 0 hr 32 min 51 sec) 
Heartbeat CPU 4 instructions: 10000007 cycles: 56612514 heartbeat IPC: 0.17664 cumulative IPC: 0.159916 (Simulation time: 0 hr 32 min 51 sec) 
Heartbeat CPU 9 instructions: 10000007 cycles: 56612640 heartbeat IPC: 0.176639 cumulative IPC: 0.159916 (Simulation time: 0 hr 32 min 51 sec) 
Heartbeat CPU 8 instructions: 10000007 cycles: 56613422 heartbeat IPC: 0.176637 cumulative IPC: 0.159915 (Simulation time: 0 hr 32 min 51 sec) 
Heartbeat CPU 7 instructions: 20000007 cycles: 119088683 heartbeat IPC: 0.160016 cumulative IPC: 0.159992 (Simulation time: 1 hr 8 min 49 sec) 
Heartbeat CPU 10 instructions: 20000007 cycles: 119090558 heartbeat IPC: 0.160018 cumulative IPC: 0.15999 (Simulation time: 1 hr 8 min 49 sec) 
Heartbeat CPU 0 instructions: 20000007 cycles: 119091280 heartbeat IPC: 0.160019 cumulative IPC: 0.159989 (Simulation time: 1 hr 8 min 49 sec) 
Heartbeat CPU 6 instructions: 20000005 cycles: 119091511 heartbeat IPC: 0.160026 cumulative IPC: 0.159989 (Simulation time: 1 hr 8 min 49 sec) 
Heartbeat CPU 11 instructions: 20000007 cycles: 119091983 heartbeat IPC: 0.160031 cumulative IPC: 0.159988 (Simulation time: 1 hr 8 min 49 sec) 
Heartbeat CPU 2 instructions: 20000006 cycles: 119093820 heartbeat IPC: 0.160027 cumulative IPC: 0.159986 (Simulation time: 1 hr 8 min 49 sec) 
Heartbeat CPU 3 instructions: 20000007 cycles: 119099389 heartbeat IPC: 0.160017 cumulative IPC: 0.159979 (Simulation time: 1 hr 8 min 49 sec) 
Heartbeat CPU 1 instructions: 20000006 cycles: 119100602 heartbeat IPC: 0.160022 cumulative IPC: 0.159976 (Simulation time: 1 hr 8 min 49 sec) 
Heartbeat CPU 5 instructions: 20000006 cycles: 119101215 heartbeat IPC: 0.160026 cumulative IPC: 0.159976 (Simulation time: 1 hr 8 min 49 sec) 
Heartbeat CPU 4 instructions: 20000007 cycles: 119102674 heartbeat IPC: 0.160025 cumulative IPC: 0.159974 (Simulation time: 1 hr 8 min 49 sec) 
Heartbeat CPU 9 instructions: 20000005 cycles: 119105149 heartbeat IPC: 0.160019 cumulative IPC: 0.15997 (Simulation time: 1 hr 8 min 49 sec) 
Heartbeat CPU 8 instructions: 20000007 cycles: 119105970 heartbeat IPC: 0.160019 cumulative IPC: 0.15997 (Simulation time: 1 hr 8 min 50 sec) 
Heartbeat CPU 7 instructions: 30000007 cycles: 181581378 heartbeat IPC: 0.160019 cumulative IPC: 0.160001 (Simulation time: 1 hr 45 min 3 sec) 
Heartbeat CPU 10 instructions: 30000007 cycles: 181581924 heartbeat IPC: 0.160022 cumulative IPC: 0.160001 (Simulation time: 1 hr 45 min 3 sec) 
Heartbeat CPU 0 instructions: 30000007 cycles: 181582412 heartbeat IPC: 0.160023 cumulative IPC: 0.160001 (Simulation time: 1 hr 45 min 3 sec) 
Heartbeat CPU 6 instructions: 30000007 cycles: 181583992 heartbeat IPC: 0.160019 cumulative IPC: 0.159999 (Simulation time: 1 hr 45 min 3 sec) 
Heartbeat CPU 11 instructions: 30000007 cycles: 181586688 heartbeat IPC: 0.160014 cumulative IPC: 0.159997 (Simulation time: 1 hr 45 min 3 sec) 
Heartbeat CPU 2 instructions: 30000007 cycles: 181587364 heartbeat IPC: 0.160017 cumulative IPC: 0.159996 (Simulation time: 1 hr 45 min 3 sec) 
Heartbeat CPU 3 instructions: 30000007 cycles: 181588825 heartbeat IPC: 0.160027 cumulative IPC: 0.159995 (Simulation time: 1 hr 45 min 3 sec) 
Heartbeat CPU 1 instructions: 30000007 cycles: 181590318 heartbeat IPC: 0.160026 cumulative IPC: 0.159994 (Simulation time: 1 hr 45 min 4 sec) 
Heartbeat CPU 5 instructions: 30000007 cycles: 181592825 heartbeat IPC: 0.160021 cumulative IPC: 0.159991 (Simulation time: 1 hr 45 min 4 sec) 
Heartbeat CPU 4 instructions: 30000007 cycles: 181594951 heartbeat IPC: 0.16002 cumulative IPC: 0.15999 (Simulation time: 1 hr 45 min 4 sec) 
Heartbeat CPU 9 instructions: 30000007 cycles: 181596754 heartbeat IPC: 0.160022 cumulative IPC: 0.159988 (Simulation time: 1 hr 45 min 4 sec) 
Heartbeat CPU 8 instructions: 30000007 cycles: 181597723 heartbeat IPC: 0.160021 cumulative IPC: 0.159987 (Simulation time: 1 hr 45 min 4 sec) 
Heartbeat CPU 7 instructions: 40000005 cycles: 244040869 heartbeat IPC: 0.160104 cumulative IPC: 0.160028 (Simulation time: 2 hr 21 min 4 sec) 
Heartbeat CPU 10 instructions: 40000007 cycles: 244041994 heartbeat IPC: 0.160102 cumulative IPC: 0.160027 (Simulation time: 2 hr 21 min 4 sec) 
Heartbeat CPU 0 instructions: 40000007 cycles: 244046143 heartbeat IPC: 0.160093 cumulative IPC: 0.160024 (Simulation time: 2 hr 21 min 4 sec) 
Heartbeat CPU 6 instructions: 40000007 cycles: 244047428 heartbeat IPC: 0.160094 cumulative IPC: 0.160023 (Simulation time: 2 hr 21 min 4 sec) 
Heartbeat CPU 11 instructions: 40000007 cycles: 244049594 heartbeat IPC: 0.160095 cumulative IPC: 0.160022 (Simulation time: 2 hr 21 min 4 sec) 
Heartbeat CPU 2 instructions: 40000007 cycles: 244050972 heartbeat IPC: 0.160093 cumulative IPC: 0.160021 (Simulation time: 2 hr 21 min 4 sec) 
Heartbeat CPU 3 instructions: 40000007 cycles: 244052302 heartbeat IPC: 0.160094 cumulative IPC: 0.16002 (Simulation time: 2 hr 21 min 4 sec) 
Heartbeat CPU 1 instructions: 40000007 cycles: 244053928 heartbeat IPC: 0.160093 cumulative IPC: 0.160019 (Simulation time: 2 hr 21 min 4 sec) 
Heartbeat CPU 5 instructions: 40000007 cycles: 244054654 heartbeat IPC: 0.160098 cumulative IPC: 0.160019 (Simulation time: 2 hr 21 min 4 sec) 
Heartbeat CPU 4 instructions: 40000005 cycles: 244056603 heartbeat IPC: 0.160098 cumulative IPC: 0.160017 (Simulation time: 2 hr 21 min 4 sec) 
Heartbeat CPU 9 instructions: 40000007 cycles: 244057417 heartbeat IPC: 0.160101 cumulative IPC: 0.160017 (Simulation time: 2 hr 21 min 4 sec) 
Heartbeat CPU 8 instructions: 40000007 cycles: 244060882 heartbeat IPC: 0.160094 cumulative IPC: 0.160015 (Simulation time: 2 hr 21 min 4 sec) 
Heartbeat CPU 7 instructions: 50000007 cycles: 306521158 heartbeat IPC: 0.160051 cumulative IPC: 0.160032 (Simulation time: 2 hr 57 min 17 sec) 
Heartbeat CPU 10 instructions: 50000005 cycles: 306524451 heartbeat IPC: 0.160045 cumulative IPC: 0.16003 (Simulation time: 2 hr 57 min 17 sec) 
Heartbeat CPU 6 instructions: 50000007 cycles: 306526685 heartbeat IPC: 0.160053 cumulative IPC: 0.160029 (Simulation time: 2 hr 57 min 17 sec) 
Heartbeat CPU 0 instructions: 50000005 cycles: 306527628 heartbeat IPC: 0.160047 cumulative IPC: 0.160029 (Simulation time: 2 hr 57 min 17 sec) 
Heartbeat CPU 11 instructions: 50000007 cycles: 306527766 heartbeat IPC: 0.160056 cumulative IPC: 0.160029 (Simulation time: 2 hr 57 min 17 sec) 
Heartbeat CPU 2 instructions: 50000007 cycles: 306529627 heartbeat IPC: 0.160055 cumulative IPC: 0.160028 (Simulation time: 2 hr 57 min 17 sec) 
Heartbeat CPU 3 instructions: 50000007 cycles: 306532440 heartbeat IPC: 0.160051 cumulative IPC: 0.160027 (Simulation time: 2 hr 57 min 17 sec) 
Heartbeat CPU 1 instructions: 50000006 cycles: 306535516 heartbeat IPC: 0.160047 cumulative IPC: 0.160025 (Simulation time: 2 hr 57 min 17 sec) 
Heartbeat CPU 5 instructions: 50000006 cycles: 306536064 heartbeat IPC: 0.160048 cumulative IPC: 0.160025 (Simulation time: 2 hr 57 min 17 sec) 
Heartbeat CPU 4 instructions: 50000007 cycles: 306536740 heartbeat IPC: 0.160051 cumulative IPC: 0.160024 (Simulation time: 2 hr 57 min 17 sec) 
Heartbeat CPU 9 instructions: 50000007 cycles: 306537810 heartbeat IPC: 0.16005 cumulative IPC: 0.160024 (Simulation time: 2 hr 57 min 17 sec) 
Heartbeat CPU 8 instructions: 50000005 cycles: 306538344 heartbeat IPC: 0.160058 cumulative IPC: 0.160024 (Simulation time: 2 hr 57 min 17 sec) 
