fieldwidths_channel: 1
DRAMSim3_DRAM init
Initialized CXL memory with 8 channels
tCXL 0 tRD 1 tWR 1
Init LLC size 24576KB
PAM Threshold: 9GB/s
Init cpu0_L2C size 512KB
Init cpu1_L2C size 512KB
Init cpu2_L2C size 512KB
Init cpu3_L2C size 512KB
Init cpu4_L2C size 512KB
Init cpu5_L2C size 512KB
Init cpu6_L2C size 512KB
Init cpu7_L2C size 512KB
Init cpu8_L2C size 512KB
Init cpu9_L2C size 512KB
Init cpu10_L2C size 512KB
Init cpu11_L2C size 512KB
Init cpu0_L1D size 32KB
Init cpu1_L1D size 32KB
Init cpu2_L1D size 32KB
Init cpu3_L1D size 32KB
Init cpu4_L1D size 32KB
Init cpu5_L1D size 32KB
Init cpu6_L1D size 32KB
Init cpu7_L1D size 32KB
Init cpu8_L1D size 32KB
Init cpu9_L1D size 32KB
Init cpu10_L1D size 32KB
Init cpu11_L1D size 32KB
Init cpu0_STLB size 192KB
Init cpu1_STLB size 192KB
Init cpu2_STLB size 192KB
Init cpu3_STLB size 192KB
Init cpu4_STLB size 192KB
Init cpu5_STLB size 192KB
Init cpu6_STLB size 192KB
Init cpu7_STLB size 192KB
Init cpu8_STLB size 192KB
Init cpu9_STLB size 192KB
Init cpu10_STLB size 192KB
Init cpu11_STLB size 192KB
Init cpu0_L1I size 32KB
Init cpu0_ITLB size 4KB
Init cpu0_DTLB size 4KB
Init cpu1_L1I size 32KB
Init cpu1_ITLB size 4KB
Init cpu1_DTLB size 4KB
Init cpu2_L1I size 32KB
Init cpu2_ITLB size 4KB
Init cpu2_DTLB size 4KB
Init cpu3_L1I size 32KB
Init cpu3_ITLB size 4KB
Init cpu3_DTLB size 4KB
Init cpu4_L1I size 32KB
Init cpu4_ITLB size 4KB
Init cpu4_DTLB size 4KB
Init cpu5_L1I size 32KB
Init cpu5_ITLB size 4KB
Init cpu5_DTLB size 4KB
Init cpu6_L1I size 32KB
Init cpu6_ITLB size 4KB
Init cpu6_DTLB size 4KB
Init cpu7_L1I size 32KB
Init cpu7_ITLB size 4KB
Init cpu7_DTLB size 4KB
Init cpu8_L1I size 32KB
Init cpu8_ITLB size 4KB
Init cpu8_DTLB size 4KB
Init cpu9_L1I size 32KB
Init cpu9_ITLB size 4KB
Init cpu9_DTLB size 4KB
Init cpu10_L1I size 32KB
Init cpu10_ITLB size 4KB
Init cpu10_DTLB size 4KB
Init cpu11_L1I size 32KB
Init cpu11_ITLB size 4KB
Init cpu11_DTLB size 4KB

*** ChampSim Multicore Out-of-Order Simulator ***

Warmup Instructions: 1000000
Simulation Instructions: 200000000
Number of CPUs: 12

VirtualMemory physical capacity: 274876854272 num_ppages: 67108607
VirtualMemory page size: 4096 log2_page_size: 12
starting with L2 parallel access: 1

All CPUs run trace-0
CPU 0 runs /nethome/acho44/coaxial_AE/TRACES/STREAM_TRACES/stream_triad.trace.xz
CPU 1 runs /nethome/acho44/coaxial_AE/TRACES/STREAM_TRACES/stream_triad.trace.xz
CPU 2 runs /nethome/acho44/coaxial_AE/TRACES/STREAM_TRACES/stream_triad.trace.xz
CPU 3 runs /nethome/acho44/coaxial_AE/TRACES/STREAM_TRACES/stream_triad.trace.xz
CPU 4 runs /nethome/acho44/coaxial_AE/TRACES/STREAM_TRACES/stream_triad.trace.xz
CPU 5 runs /nethome/acho44/coaxial_AE/TRACES/STREAM_TRACES/stream_triad.trace.xz
CPU 6 runs /nethome/acho44/coaxial_AE/TRACES/STREAM_TRACES/stream_triad.trace.xz
CPU 7 runs /nethome/acho44/coaxial_AE/TRACES/STREAM_TRACES/stream_triad.trace.xz
CPU 8 runs /nethome/acho44/coaxial_AE/TRACES/STREAM_TRACES/stream_triad.trace.xz
CPU 9 runs /nethome/acho44/coaxial_AE/TRACES/STREAM_TRACES/stream_triad.trace.xz
CPU 10 runs /nethome/acho44/coaxial_AE/TRACES/STREAM_TRACES/stream_triad.trace.xz
CPU 11 runs /nethome/acho44/coaxial_AE/TRACES/STREAM_TRACES/stream_triad.trace.xz
Basic BTB sets: 1024 ways: 8 indirect buffer size: 1536 RAS size: 32
Basic BTB sets: 1024 ways: 8 indirect buffer size: 1536 RAS size: 32
Basic BTB sets: 1024 ways: 8 indirect buffer size: 1536 RAS size: 32
Basic BTB sets: 1024 ways: 8 indirect buffer size: 1536 RAS size: 32
Basic BTB sets: 1024 ways: 8 indirect buffer size: 1536 RAS size: 32
Basic BTB sets: 1024 ways: 8 indirect buffer size: 1536 RAS size: 32
Basic BTB sets: 1024 ways: 8 indirect buffer size: 1536 RAS size: 32
Basic BTB sets: 1024 ways: 8 indirect buffer size: 1536 RAS size: 32
Basic BTB sets: 1024 ways: 8 indirect buffer size: 1536 RAS size: 32
Basic BTB sets: 1024 ways: 8 indirect buffer size: 1536 RAS size: 32
Basic BTB sets: 1024 ways: 8 indirect buffer size: 1536 RAS size: 32
Basic BTB sets: 1024 ways: 8 indirect buffer size: 1536 RAS size: 32
CPU 0 next line instruction prefetcher
CPU 0 next line instruction prefetcher
CPU 0 next line instruction prefetcher
CPU 0 next line instruction prefetcher
CPU 0 next line instruction prefetcher
CPU 0 next line instruction prefetcher
CPU 0 next line instruction prefetcher
CPU 0 next line instruction prefetcher
CPU 0 next line instruction prefetcher
CPU 0 next line instruction prefetcher
CPU 0 next line instruction prefetcher
CPU 0 next line instruction prefetcher
cpu11_L2C IP-based stride prefetcher
cpu10_L2C IP-based stride prefetcher
cpu9_L2C IP-based stride prefetcher
cpu8_L2C IP-based stride prefetcher
cpu7_L2C IP-based stride prefetcher
cpu6_L2C IP-based stride prefetcher
cpu5_L2C IP-based stride prefetcher
cpu4_L2C IP-based stride prefetcher
cpu3_L2C IP-based stride prefetcher
cpu2_L2C IP-based stride prefetcher
cpu1_L2C IP-based stride prefetcher
cpu0_L2C IP-based stride prefetcher
WARNING: The extended signature CACHE::prefetch_line(ip, base_addr, pf_addr, fill_this_level, prefetch_metadata) is deprecated.
WARNING: Use CACHE::prefetch_line(pf_addr, fill_this_level, prefetch_metadata) instead.

Warmup complete CPU 0 instructions: 1000107 cycles: 285885 (Simulation time: 0 hr 0 min 22 sec) 
Warmup complete CPU 1 instructions: 1000044 cycles: 285885 (Simulation time: 0 hr 0 min 22 sec) 
Warmup complete CPU 2 instructions: 1000003 cycles: 285885 (Simulation time: 0 hr 0 min 22 sec) 
Warmup complete CPU 3 instructions: 1000004 cycles: 285885 (Simulation time: 0 hr 0 min 22 sec) 
Warmup complete CPU 4 instructions: 1000115 cycles: 285885 (Simulation time: 0 hr 0 min 22 sec) 
Warmup complete CPU 5 instructions: 1000140 cycles: 285885 (Simulation time: 0 hr 0 min 22 sec) 
Warmup complete CPU 6 instructions: 1000171 cycles: 285885 (Simulation time: 0 hr 0 min 22 sec) 
Warmup complete CPU 7 instructions: 1000003 cycles: 285885 (Simulation time: 0 hr 0 min 22 sec) 
Warmup complete CPU 8 instructions: 1000099 cycles: 285885 (Simulation time: 0 hr 0 min 22 sec) 
Warmup complete CPU 9 instructions: 1000116 cycles: 285885 (Simulation time: 0 hr 0 min 22 sec) 
Warmup complete CPU 10 instructions: 1000044 cycles: 285885 (Simulation time: 0 hr 0 min 22 sec) 
Warmup complete CPU 11 instructions: 1000004 cycles: 285885 (Simulation time: 0 hr 0 min 22 sec) 

Heartbeat CPU 0 instructions: 10000005 cycles: 53795125 heartbeat IPC: 0.185891 cumulative IPC: 0.168193 (Simulation time: 0 hr 30 min 42 sec) 
Heartbeat CPU 6 instructions: 10000005 cycles: 53795717 heartbeat IPC: 0.185888 cumulative IPC: 0.16819 (Simulation time: 0 hr 30 min 42 sec) 
Heartbeat CPU 5 instructions: 10000005 cycles: 53796225 heartbeat IPC: 0.185887 cumulative IPC: 0.168189 (Simulation time: 0 hr 30 min 42 sec) 
Heartbeat CPU 8 instructions: 10000005 cycles: 53796345 heartbeat IPC: 0.185886 cumulative IPC: 0.16819 (Simulation time: 0 hr 30 min 42 sec) 
Heartbeat CPU 9 instructions: 10000005 cycles: 53797439 heartbeat IPC: 0.185883 cumulative IPC: 0.168186 (Simulation time: 0 hr 30 min 42 sec) 
Heartbeat CPU 4 instructions: 10000005 cycles: 53804790 heartbeat IPC: 0.185857 cumulative IPC: 0.168163 (Simulation time: 0 hr 30 min 42 sec) 
Heartbeat CPU 1 instructions: 10000005 cycles: 53814912 heartbeat IPC: 0.185822 cumulative IPC: 0.168132 (Simulation time: 0 hr 30 min 43 sec) 
Heartbeat CPU 3 instructions: 10000005 cycles: 53815586 heartbeat IPC: 0.18582 cumulative IPC: 0.168131 (Simulation time: 0 hr 30 min 43 sec) 
Heartbeat CPU 10 instructions: 10000005 cycles: 53815919 heartbeat IPC: 0.185819 cumulative IPC: 0.168129 (Simulation time: 0 hr 30 min 43 sec) 
Heartbeat CPU 11 instructions: 10000005 cycles: 53816088 heartbeat IPC: 0.185818 cumulative IPC: 0.168129 (Simulation time: 0 hr 30 min 43 sec) 
Heartbeat CPU 7 instructions: 10000005 cycles: 53816717 heartbeat IPC: 0.185816 cumulative IPC: 0.168127 (Simulation time: 0 hr 30 min 43 sec) 
Heartbeat CPU 2 instructions: 10000005 cycles: 53817027 heartbeat IPC: 0.185815 cumulative IPC: 0.168126 (Simulation time: 0 hr 30 min 43 sec) 
Heartbeat CPU 0 instructions: 20000005 cycles: 113100797 heartbeat IPC: 0.168618 cumulative IPC: 0.168417 (Simulation time: 1 hr 4 min 25 sec) 
Heartbeat CPU 6 instructions: 20000005 cycles: 113101031 heartbeat IPC: 0.168619 cumulative IPC: 0.168416 (Simulation time: 1 hr 4 min 25 sec) 
Heartbeat CPU 5 instructions: 20000005 cycles: 113101649 heartbeat IPC: 0.168619 cumulative IPC: 0.168415 (Simulation time: 1 hr 4 min 25 sec) 
Heartbeat CPU 8 instructions: 20000005 cycles: 113101761 heartbeat IPC: 0.168619 cumulative IPC: 0.168415 (Simulation time: 1 hr 4 min 25 sec) 
Heartbeat CPU 9 instructions: 20000005 cycles: 113102278 heartbeat IPC: 0.16862 cumulative IPC: 0.168414 (Simulation time: 1 hr 4 min 25 sec) 
Heartbeat CPU 4 instructions: 20000005 cycles: 113102595 heartbeat IPC: 0.16864 cumulative IPC: 0.168414 (Simulation time: 1 hr 4 min 25 sec) 
Heartbeat CPU 1 instructions: 20000005 cycles: 113102805 heartbeat IPC: 0.168668 cumulative IPC: 0.168414 (Simulation time: 1 hr 4 min 25 sec) 
Heartbeat CPU 3 instructions: 20000005 cycles: 113103253 heartbeat IPC: 0.168669 cumulative IPC: 0.168414 (Simulation time: 1 hr 4 min 25 sec) 
Heartbeat CPU 10 instructions: 20000005 cycles: 113103772 heartbeat IPC: 0.168669 cumulative IPC: 0.168413 (Simulation time: 1 hr 4 min 25 sec) 
Heartbeat CPU 11 instructions: 20000005 cycles: 113104315 heartbeat IPC: 0.168668 cumulative IPC: 0.168412 (Simulation time: 1 hr 4 min 25 sec) 
Heartbeat CPU 7 instructions: 20000005 cycles: 113112863 heartbeat IPC: 0.168645 cumulative IPC: 0.168399 (Simulation time: 1 hr 4 min 25 sec) 
Heartbeat CPU 2 instructions: 20000005 cycles: 113121829 heartbeat IPC: 0.16862 cumulative IPC: 0.168386 (Simulation time: 1 hr 4 min 25 sec) 
Heartbeat CPU 0 instructions: 30000005 cycles: 172358739 heartbeat IPC: 0.168754 cumulative IPC: 0.168533 (Simulation time: 1 hr 38 min 7 sec) 
Heartbeat CPU 6 instructions: 30000005 cycles: 172359493 heartbeat IPC: 0.168752 cumulative IPC: 0.168532 (Simulation time: 1 hr 38 min 7 sec) 
Heartbeat CPU 5 instructions: 30000005 cycles: 172359627 heartbeat IPC: 0.168754 cumulative IPC: 0.168532 (Simulation time: 1 hr 38 min 7 sec) 
Heartbeat CPU 8 instructions: 30000005 cycles: 172360193 heartbeat IPC: 0.168752 cumulative IPC: 0.168531 (Simulation time: 1 hr 38 min 7 sec) 
Heartbeat CPU 9 instructions: 30000005 cycles: 172360326 heartbeat IPC: 0.168753 cumulative IPC: 0.168531 (Simulation time: 1 hr 38 min 7 sec) 
Heartbeat CPU 4 instructions: 30000005 cycles: 172361489 heartbeat IPC: 0.168751 cumulative IPC: 0.16853 (Simulation time: 1 hr 38 min 7 sec) 
Heartbeat CPU 1 instructions: 30000005 cycles: 172368106 heartbeat IPC: 0.168733 cumulative IPC: 0.168524 (Simulation time: 1 hr 38 min 7 sec) 
Heartbeat CPU 3 instructions: 30000005 cycles: 172378581 heartbeat IPC: 0.168704 cumulative IPC: 0.168514 (Simulation time: 1 hr 38 min 8 sec) 
Heartbeat CPU 10 instructions: 30000005 cycles: 172379321 heartbeat IPC: 0.168704 cumulative IPC: 0.168513 (Simulation time: 1 hr 38 min 8 sec) 
Heartbeat CPU 11 instructions: 30000005 cycles: 172380061 heartbeat IPC: 0.168703 cumulative IPC: 0.168512 (Simulation time: 1 hr 38 min 8 sec) 
Heartbeat CPU 7 instructions: 30000005 cycles: 172380680 heartbeat IPC: 0.168726 cumulative IPC: 0.168512 (Simulation time: 1 hr 38 min 8 sec) 
Heartbeat CPU 2 instructions: 30000005 cycles: 172381016 heartbeat IPC: 0.16875 cumulative IPC: 0.168511 (Simulation time: 1 hr 38 min 8 sec) 
Heartbeat CPU 0 instructions: 40000005 cycles: 231644444 heartbeat IPC: 0.168675 cumulative IPC: 0.168569 (Simulation time: 2 hr 11 min 51 sec) 
Heartbeat CPU 6 instructions: 40000005 cycles: 231644533 heartbeat IPC: 0.168677 cumulative IPC: 0.168569 (Simulation time: 2 hr 11 min 51 sec) 
Heartbeat CPU 5 instructions: 40000005 cycles: 231644941 heartbeat IPC: 0.168676 cumulative IPC: 0.168569 (Simulation time: 2 hr 11 min 51 sec) 
Heartbeat CPU 4 instructions: 40000005 cycles: 231645731 heartbeat IPC: 0.168679 cumulative IPC: 0.168568 (Simulation time: 2 hr 11 min 51 sec) 
Heartbeat CPU 8 instructions: 40000005 cycles: 231646394 heartbeat IPC: 0.168673 cumulative IPC: 0.168568 (Simulation time: 2 hr 11 min 52 sec) 
Heartbeat CPU 9 instructions: 40000005 cycles: 231646529 heartbeat IPC: 0.168673 cumulative IPC: 0.168568 (Simulation time: 2 hr 11 min 52 sec) 
Heartbeat CPU 1 instructions: 40000005 cycles: 231646655 heartbeat IPC: 0.168695 cumulative IPC: 0.168568 (Simulation time: 2 hr 11 min 52 sec) 
Heartbeat CPU 3 instructions: 40000005 cycles: 231647464 heartbeat IPC: 0.168723 cumulative IPC: 0.168567 (Simulation time: 2 hr 11 min 52 sec) 
Heartbeat CPU 10 instructions: 40000005 cycles: 231656628 heartbeat IPC: 0.168699 cumulative IPC: 0.16856 (Simulation time: 2 hr 11 min 52 sec) 
Heartbeat CPU 11 instructions: 40000005 cycles: 231663195 heartbeat IPC: 0.168682 cumulative IPC: 0.168556 (Simulation time: 2 hr 11 min 52 sec) 
Heartbeat CPU 7 instructions: 40000005 cycles: 231666350 heartbeat IPC: 0.168675 cumulative IPC: 0.168554 (Simulation time: 2 hr 11 min 52 sec) 
Heartbeat CPU 2 instructions: 40000005 cycles: 231666835 heartbeat IPC: 0.168674 cumulative IPC: 0.168553 (Simulation time: 2 hr 11 min 52 sec) 
Heartbeat CPU 0 instructions: 50000004 cycles: 291158397 heartbeat IPC: 0.168028 cumulative IPC: 0.168458 (Simulation time: 2 hr 45 min 43 sec) 
Heartbeat CPU 6 instructions: 50000004 cycles: 291158897 heartbeat IPC: 0.168027 cumulative IPC: 0.168458 (Simulation time: 2 hr 45 min 43 sec) 
Heartbeat CPU 5 instructions: 50000004 cycles: 291159915 heartbeat IPC: 0.168025 cumulative IPC: 0.168457 (Simulation time: 2 hr 45 min 43 sec) 
Heartbeat CPU 4 instructions: 50000004 cycles: 291161326 heartbeat IPC: 0.168023 cumulative IPC: 0.168457 (Simulation time: 2 hr 45 min 43 sec) 
Heartbeat CPU 8 instructions: 50000005 cycles: 291173255 heartbeat IPC: 0.167991 cumulative IPC: 0.16845 (Simulation time: 2 hr 45 min 44 sec) 
Heartbeat CPU 9 instructions: 50000004 cycles: 291174556 heartbeat IPC: 0.167988 cumulative IPC: 0.168449 (Simulation time: 2 hr 45 min 44 sec) 
Heartbeat CPU 1 instructions: 50000005 cycles: 291175783 heartbeat IPC: 0.167985 cumulative IPC: 0.168448 (Simulation time: 2 hr 45 min 44 sec) 
Heartbeat CPU 3 instructions: 50000005 cycles: 291177582 heartbeat IPC: 0.167982 cumulative IPC: 0.168448 (Simulation time: 2 hr 45 min 44 sec) 
Heartbeat CPU 10 instructions: 50000005 cycles: 291178070 heartbeat IPC: 0.168007 cumulative IPC: 0.168447 (Simulation time: 2 hr 45 min 44 sec) 
Heartbeat CPU 11 instructions: 50000005 cycles: 291178541 heartbeat IPC: 0.168024 cumulative IPC: 0.168447 (Simulation time: 2 hr 45 min 44 sec) 
Heartbeat CPU 7 instructions: 50000005 cycles: 291179518 heartbeat IPC: 0.16803 cumulative IPC: 0.168446 (Simulation time: 2 hr 45 min 44 sec) 
Heartbeat CPU 2 instructions: 50000005 cycles: 291179941 heartbeat IPC: 0.16803 cumulative IPC: 0.168446 (Simulation time: 2 hr 45 min 44 sec) 
