fieldwidths_channel: 3
DRAMSim3_DRAM init
Initialized CXL memory with 4 channels
tCXL 50 tRD 5 tWR 11
Init LLC size 12288KB
PAM Threshold: 106GB/s
Init cpu0_L2C size 512KB
Init cpu1_L2C size 512KB
Init cpu2_L2C size 512KB
Init cpu3_L2C size 512KB
Init cpu4_L2C size 512KB
Init cpu5_L2C size 512KB
Init cpu6_L2C size 512KB
Init cpu7_L2C size 512KB
Init cpu8_L2C size 512KB
Init cpu9_L2C size 512KB
Init cpu10_L2C size 512KB
Init cpu11_L2C size 512KB
Init cpu0_L1D size 32KB
Init cpu1_L1D size 32KB
Init cpu2_L1D size 32KB
Init cpu3_L1D size 32KB
Init cpu4_L1D size 32KB
Init cpu5_L1D size 32KB
Init cpu6_L1D size 32KB
Init cpu7_L1D size 32KB
Init cpu8_L1D size 32KB
Init cpu9_L1D size 32KB
Init cpu10_L1D size 32KB
Init cpu11_L1D size 32KB
Init cpu0_STLB size 192KB
Init cpu1_STLB size 192KB
Init cpu2_STLB size 192KB
Init cpu3_STLB size 192KB
Init cpu4_STLB size 192KB
Init cpu5_STLB size 192KB
Init cpu6_STLB size 192KB
Init cpu7_STLB size 192KB
Init cpu8_STLB size 192KB
Init cpu9_STLB size 192KB
Init cpu10_STLB size 192KB
Init cpu11_STLB size 192KB
Init cpu0_L1I size 32KB
Init cpu0_ITLB size 4KB
Init cpu0_DTLB size 4KB
Init cpu1_L1I size 32KB
Init cpu1_ITLB size 4KB
Init cpu1_DTLB size 4KB
Init cpu2_L1I size 32KB
Init cpu2_ITLB size 4KB
Init cpu2_DTLB size 4KB
Init cpu3_L1I size 32KB
Init cpu3_ITLB size 4KB
Init cpu3_DTLB size 4KB
Init cpu4_L1I size 32KB
Init cpu4_ITLB size 4KB
Init cpu4_DTLB size 4KB
Init cpu5_L1I size 32KB
Init cpu5_ITLB size 4KB
Init cpu5_DTLB size 4KB
Init cpu6_L1I size 32KB
Init cpu6_ITLB size 4KB
Init cpu6_DTLB size 4KB
Init cpu7_L1I size 32KB
Init cpu7_ITLB size 4KB
Init cpu7_DTLB size 4KB
Init cpu8_L1I size 32KB
Init cpu8_ITLB size 4KB
Init cpu8_DTLB size 4KB
Init cpu9_L1I size 32KB
Init cpu9_ITLB size 4KB
Init cpu9_DTLB size 4KB
Init cpu10_L1I size 32KB
Init cpu10_ITLB size 4KB
Init cpu10_DTLB size 4KB
Init cpu11_L1I size 32KB
Init cpu11_ITLB size 4KB
Init cpu11_DTLB size 4KB

*** ChampSim Multicore Out-of-Order Simulator ***

Warmup Instructions: 1000000
Simulation Instructions: 200000000
Number of CPUs: 12

VirtualMemory physical capacity: 137437900800 num_ppages: 33554175
VirtualMemory page size: 4096 log2_page_size: 12
starting with L2 parallel access: 1

All CPUs run trace-0
CPU 0 runs /nethome/acho44/coaxial_AE/TRACES/STREAM_TRACES/stream_triad.trace.xz
CPU 1 runs /nethome/acho44/coaxial_AE/TRACES/STREAM_TRACES/stream_triad.trace.xz
CPU 2 runs /nethome/acho44/coaxial_AE/TRACES/STREAM_TRACES/stream_triad.trace.xz
CPU 3 runs /nethome/acho44/coaxial_AE/TRACES/STREAM_TRACES/stream_triad.trace.xz
CPU 4 runs /nethome/acho44/coaxial_AE/TRACES/STREAM_TRACES/stream_triad.trace.xz
CPU 5 runs /nethome/acho44/coaxial_AE/TRACES/STREAM_TRACES/stream_triad.trace.xz
CPU 6 runs /nethome/acho44/coaxial_AE/TRACES/STREAM_TRACES/stream_triad.trace.xz
CPU 7 runs /nethome/acho44/coaxial_AE/TRACES/STREAM_TRACES/stream_triad.trace.xz
CPU 8 runs /nethome/acho44/coaxial_AE/TRACES/STREAM_TRACES/stream_triad.trace.xz
CPU 9 runs /nethome/acho44/coaxial_AE/TRACES/STREAM_TRACES/stream_triad.trace.xz
CPU 10 runs /nethome/acho44/coaxial_AE/TRACES/STREAM_TRACES/stream_triad.trace.xz
CPU 11 runs /nethome/acho44/coaxial_AE/TRACES/STREAM_TRACES/stream_triad.trace.xz
Basic BTB sets: 1024 ways: 8 indirect buffer size: 1536 RAS size: 32
Basic BTB sets: 1024 ways: 8 indirect buffer size: 1536 RAS size: 32
Basic BTB sets: 1024 ways: 8 indirect buffer size: 1536 RAS size: 32
Basic BTB sets: 1024 ways: 8 indirect buffer size: 1536 RAS size: 32
Basic BTB sets: 1024 ways: 8 indirect buffer size: 1536 RAS size: 32
Basic BTB sets: 1024 ways: 8 indirect buffer size: 1536 RAS size: 32
Basic BTB sets: 1024 ways: 8 indirect buffer size: 1536 RAS size: 32
Basic BTB sets: 1024 ways: 8 indirect buffer size: 1536 RAS size: 32
Basic BTB sets: 1024 ways: 8 indirect buffer size: 1536 RAS size: 32
Basic BTB sets: 1024 ways: 8 indirect buffer size: 1536 RAS size: 32
Basic BTB sets: 1024 ways: 8 indirect buffer size: 1536 RAS size: 32
Basic BTB sets: 1024 ways: 8 indirect buffer size: 1536 RAS size: 32
CPU 0 next line instruction prefetcher
CPU 0 next line instruction prefetcher
CPU 0 next line instruction prefetcher
CPU 0 next line instruction prefetcher
CPU 0 next line instruction prefetcher
CPU 0 next line instruction prefetcher
CPU 0 next line instruction prefetcher
CPU 0 next line instruction prefetcher
CPU 0 next line instruction prefetcher
CPU 0 next line instruction prefetcher
CPU 0 next line instruction prefetcher
CPU 0 next line instruction prefetcher
cpu11_L2C IP-based stride prefetcher
cpu10_L2C IP-based stride prefetcher
cpu9_L2C IP-based stride prefetcher
cpu8_L2C IP-based stride prefetcher
cpu7_L2C IP-based stride prefetcher
cpu6_L2C IP-based stride prefetcher
cpu5_L2C IP-based stride prefetcher
cpu4_L2C IP-based stride prefetcher
cpu3_L2C IP-based stride prefetcher
cpu2_L2C IP-based stride prefetcher
cpu1_L2C IP-based stride prefetcher
cpu0_L2C IP-based stride prefetcher
WARNING: The extended signature CACHE::prefetch_line(ip, base_addr, pf_addr, fill_this_level, prefetch_metadata) is deprecated.
WARNING: Use CACHE::prefetch_line(pf_addr, fill_this_level, prefetch_metadata) instead.
L2_PA_ratio set to: 0
L2 Parallel Access switched to 0
L2_PA_ratio set to: 0

Warmup complete CPU 0 instructions: 1000115 cycles: 285889 (Simulation time: 0 hr 0 min 24 sec) 
Warmup complete CPU 1 instructions: 1000099 cycles: 285889 (Simulation time: 0 hr 0 min 24 sec) 
Warmup complete CPU 2 instructions: 1000092 cycles: 285889 (Simulation time: 0 hr 0 min 24 sec) 
Warmup complete CPU 3 instructions: 1000004 cycles: 285889 (Simulation time: 0 hr 0 min 24 sec) 
Warmup complete CPU 4 instructions: 1000116 cycles: 285889 (Simulation time: 0 hr 0 min 24 sec) 
Warmup complete CPU 5 instructions: 1000148 cycles: 285889 (Simulation time: 0 hr 0 min 24 sec) 
Warmup complete CPU 6 instructions: 1000092 cycles: 285889 (Simulation time: 0 hr 0 min 24 sec) 
Warmup complete CPU 7 instructions: 1000059 cycles: 285889 (Simulation time: 0 hr 0 min 24 sec) 
Warmup complete CPU 8 instructions: 1000100 cycles: 285889 (Simulation time: 0 hr 0 min 24 sec) 
Warmup complete CPU 9 instructions: 1000124 cycles: 285889 (Simulation time: 0 hr 0 min 24 sec) 
Warmup complete CPU 10 instructions: 1000060 cycles: 285889 (Simulation time: 0 hr 0 min 24 sec) 
Warmup complete CPU 11 instructions: 1000003 cycles: 285889 (Simulation time: 0 hr 0 min 24 sec) 

L2_PA_ratio set to: 0
TH_L2PA: 106, l2miss_BW: 39, llc_miss_BW: 39
L2_PA_ratio set to: 171
L2 Parallel Access switched to 1
TH_L2PA: 106, l2miss_BW: 44, llc_miss_BW: 44
L2_PA_ratio set to: 140
TH_L2PA: 106, l2miss_BW: 44, llc_miss_BW: 44
L2_PA_ratio set to: 140
TH_L2PA: 106, l2miss_BW: 44, llc_miss_BW: 44
L2_PA_ratio set to: 140
TH_L2PA: 106, l2miss_BW: 41, llc_miss_BW: 41
L2_PA_ratio set to: 158
TH_L2PA: 106, l2miss_BW: 42, llc_miss_BW: 42
L2_PA_ratio set to: 152
TH_L2PA: 106, l2miss_BW: 44, llc_miss_BW: 44
L2_PA_ratio set to: 140
TH_L2PA: 106, l2miss_BW: 43, llc_miss_BW: 43
L2_PA_ratio set to: 146
TH_L2PA: 106, l2miss_BW: 44, llc_miss_BW: 44
L2_PA_ratio set to: 140
TH_L2PA: 106, l2miss_BW: 43, llc_miss_BW: 43
L2_PA_ratio set to: 146
TH_L2PA: 106, l2miss_BW: 44, llc_miss_BW: 44
L2_PA_ratio set to: 140
TH_L2PA: 106, l2miss_BW: 43, llc_miss_BW: 43
L2_PA_ratio set to: 146
TH_L2PA: 106, l2miss_BW: 43, llc_miss_BW: 43
L2_PA_ratio set to: 146
TH_L2PA: 106, l2miss_BW: 43, llc_miss_BW: 43
L2_PA_ratio set to: 146
TH_L2PA: 106, l2miss_BW: 43, llc_miss_BW: 43
L2_PA_ratio set to: 146
TH_L2PA: 106, l2miss_BW: 43, llc_miss_BW: 43
L2_PA_ratio set to: 146
TH_L2PA: 106, l2miss_BW: 44, llc_miss_BW: 44
L2_PA_ratio set to: 140
TH_L2PA: 106, l2miss_BW: 43, llc_miss_BW: 43
L2_PA_ratio set to: 146
TH_L2PA: 106, l2miss_BW: 44, llc_miss_BW: 44
L2_PA_ratio set to: 140
TH_L2PA: 106, l2miss_BW: 43, llc_miss_BW: 43
L2_PA_ratio set to: 146
TH_L2PA: 106, l2miss_BW: 44, llc_miss_BW: 44
L2_PA_ratio set to: 140
TH_L2PA: 106, l2miss_BW: 44, llc_miss_BW: 44
L2_PA_ratio set to: 140
TH_L2PA: 106, l2miss_BW: 44, llc_miss_BW: 44
L2_PA_ratio set to: 140
TH_L2PA: 106, l2miss_BW: 44, llc_miss_BW: 44
L2_PA_ratio set to: 140
TH_L2PA: 106, l2miss_BW: 43, llc_miss_BW: 43
L2_PA_ratio set to: 146
TH_L2PA: 106, l2miss_BW: 44, llc_miss_BW: 44
L2_PA_ratio set to: 140
TH_L2PA: 106, l2miss_BW: 43, llc_miss_BW: 43
L2_PA_ratio set to: 146
TH_L2PA: 106, l2miss_BW: 45, llc_miss_BW: 45
L2_PA_ratio set to: 135
TH_L2PA: 106, l2miss_BW: 44, llc_miss_BW: 44
L2_PA_ratio set to: 140
TH_L2PA: 106, l2miss_BW: 44, llc_miss_BW: 44
L2_PA_ratio set to: 140
TH_L2PA: 106, l2miss_BW: 44, llc_miss_BW: 44
L2_PA_ratio set to: 140
TH_L2PA: 106, l2miss_BW: 44, llc_miss_BW: 44
L2_PA_ratio set to: 140
TH_L2PA: 106, l2miss_BW: 42, llc_miss_BW: 42
L2_PA_ratio set to: 152
TH_L2PA: 106, l2miss_BW: 43, llc_miss_BW: 43
L2_PA_ratio set to: 146
TH_L2PA: 106, l2miss_BW: 44, llc_miss_BW: 44
L2_PA_ratio set to: 140
TH_L2PA: 106, l2miss_BW: 44, llc_miss_BW: 44
L2_PA_ratio set to: 140
TH_L2PA: 106, l2miss_BW: 44, llc_miss_BW: 44
L2_PA_ratio set to: 140
TH_L2PA: 106, l2miss_BW: 43, llc_miss_BW: 43
L2_PA_ratio set to: 146
TH_L2PA: 106, l2miss_BW: 44, llc_miss_BW: 44
L2_PA_ratio set to: 140
TH_L2PA: 106, l2miss_BW: 43, llc_miss_BW: 43
L2_PA_ratio set to: 146
TH_L2PA: 106, l2miss_BW: 43, llc_miss_BW: 43
L2_PA_ratio set to: 146
TH_L2PA: 106, l2miss_BW: 44, llc_miss_BW: 44
L2_PA_ratio set to: 140
TH_L2PA: 106, l2miss_BW: 44, llc_miss_BW: 44
L2_PA_ratio set to: 140
TH_L2PA: 106, l2miss_BW: 43, llc_miss_BW: 43
L2_PA_ratio set to: 146
TH_L2PA: 106, l2miss_BW: 44, llc_miss_BW: 44
L2_PA_ratio set to: 140
TH_L2PA: 106, l2miss_BW: 43, llc_miss_BW: 43
L2_PA_ratio set to: 146
TH_L2PA: 106, l2miss_BW: 43, llc_miss_BW: 43
L2_PA_ratio set to: 146
TH_L2PA: 106, l2miss_BW: 42, llc_miss_BW: 42
L2_PA_ratio set to: 152
TH_L2PA: 106, l2miss_BW: 43, llc_miss_BW: 43
L2_PA_ratio set to: 146
TH_L2PA: 106, l2miss_BW: 43, llc_miss_BW: 43
L2_PA_ratio set to: 146
TH_L2PA: 106, l2miss_BW: 43, llc_miss_BW: 43
L2_PA_ratio set to: 146
TH_L2PA: 106, l2miss_BW: 42, llc_miss_BW: 42
L2_PA_ratio set to: 152
TH_L2PA: 106, l2miss_BW: 43, llc_miss_BW: 43
L2_PA_ratio set to: 146
TH_L2PA: 106, l2miss_BW: 42, llc_miss_BW: 42
L2_PA_ratio set to: 152
TH_L2PA: 106, l2miss_BW: 44, llc_miss_BW: 44
L2_PA_ratio set to: 140
TH_L2PA: 106, l2miss_BW: 44, llc_miss_BW: 44
L2_PA_ratio set to: 140
TH_L2PA: 106, l2miss_BW: 43, llc_miss_BW: 43
L2_PA_ratio set to: 146
TH_L2PA: 106, l2miss_BW: 44, llc_miss_BW: 44
L2_PA_ratio set to: 140
TH_L2PA: 106, l2miss_BW: 42, llc_miss_BW: 42
L2_PA_ratio set to: 152
TH_L2PA: 106, l2miss_BW: 44, llc_miss_BW: 44
L2_PA_ratio set to: 140
TH_L2PA: 106, l2miss_BW: 44, llc_miss_BW: 44
L2_PA_ratio set to: 140
TH_L2PA: 106, l2miss_BW: 43, llc_miss_BW: 43
L2_PA_ratio set to: 146
TH_L2PA: 106, l2miss_BW: 43, llc_miss_BW: 43
L2_PA_ratio set to: 146
TH_L2PA: 106, l2miss_BW: 44, llc_miss_BW: 44
L2_PA_ratio set to: 140
TH_L2PA: 106, l2miss_BW: 44, llc_miss_BW: 44
L2_PA_ratio set to: 140
TH_L2PA: 106, l2miss_BW: 43, llc_miss_BW: 43
L2_PA_ratio set to: 146
TH_L2PA: 106, l2miss_BW: 43, llc_miss_BW: 43
L2_PA_ratio set to: 146
TH_L2PA: 106, l2miss_BW: 43, llc_miss_BW: 43
L2_PA_ratio set to: 146
TH_L2PA: 106, l2miss_BW: 44, llc_miss_BW: 44
L2_PA_ratio set to: 140
TH_L2PA: 106, l2miss_BW: 43, llc_miss_BW: 43
L2_PA_ratio set to: 146
TH_L2PA: 106, l2miss_BW: 44, llc_miss_BW: 44
L2_PA_ratio set to: 140
TH_L2PA: 106, l2miss_BW: 43, llc_miss_BW: 43
L2_PA_ratio set to: 146
TH_L2PA: 106, l2miss_BW: 43, llc_miss_BW: 43
L2_PA_ratio set to: 146
TH_L2PA: 106, l2miss_BW: 43, llc_miss_BW: 43
L2_PA_ratio set to: 146
TH_L2PA: 106, l2miss_BW: 45, llc_miss_BW: 45
L2_PA_ratio set to: 135
TH_L2PA: 106, l2miss_BW: 44, llc_miss_BW: 44
L2_PA_ratio set to: 140
TH_L2PA: 106, l2miss_BW: 45, llc_miss_BW: 45
L2_PA_ratio set to: 135
TH_L2PA: 106, l2miss_BW: 43, llc_miss_BW: 43
L2_PA_ratio set to: 146
TH_L2PA: 106, l2miss_BW: 44, llc_miss_BW: 44
L2_PA_ratio set to: 140
TH_L2PA: 106, l2miss_BW: 44, llc_miss_BW: 44
L2_PA_ratio set to: 140
TH_L2PA: 106, l2miss_BW: 43, llc_miss_BW: 43
L2_PA_ratio set to: 146
TH_L2PA: 106, l2miss_BW: 44, llc_miss_BW: 44
L2_PA_ratio set to: 140
TH_L2PA: 106, l2miss_BW: 44, llc_miss_BW: 44
L2_PA_ratio set to: 140
TH_L2PA: 106, l2miss_BW: 42, llc_miss_BW: 42
L2_PA_ratio set to: 152
TH_L2PA: 106, l2miss_BW: 43, llc_miss_BW: 43
L2_PA_ratio set to: 146
TH_L2PA: 106, l2miss_BW: 43, llc_miss_BW: 43
L2_PA_ratio set to: 146
TH_L2PA: 106, l2miss_BW: 44, llc_miss_BW: 44
L2_PA_ratio set to: 140
TH_L2PA: 106, l2miss_BW: 44, llc_miss_BW: 44
L2_PA_ratio set to: 140
TH_L2PA: 106, l2miss_BW: 43, llc_miss_BW: 43
L2_PA_ratio set to: 146
TH_L2PA: 106, l2miss_BW: 43, llc_miss_BW: 43
L2_PA_ratio set to: 146
TH_L2PA: 106, l2miss_BW: 44, llc_miss_BW: 44
L2_PA_ratio set to: 140
TH_L2PA: 106, l2miss_BW: 43, llc_miss_BW: 43
L2_PA_ratio set to: 146
TH_L2PA: 106, l2miss_BW: 43, llc_miss_BW: 43
L2_PA_ratio set to: 146
TH_L2PA: 106, l2miss_BW: 41, llc_miss_BW: 41
L2_PA_ratio set to: 158
TH_L2PA: 106, l2miss_BW: 44, llc_miss_BW: 44
L2_PA_ratio set to: 140
TH_L2PA: 106, l2miss_BW: 42, llc_miss_BW: 42
L2_PA_ratio set to: 152
TH_L2PA: 106, l2miss_BW: 42, llc_miss_BW: 42
L2_PA_ratio set to: 152
TH_L2PA: 106, l2miss_BW: 44, llc_miss_BW: 44
L2_PA_ratio set to: 140
TH_L2PA: 106, l2miss_BW: 43, llc_miss_BW: 43
L2_PA_ratio set to: 146
TH_L2PA: 106, l2miss_BW: 43, llc_miss_BW: 43
L2_PA_ratio set to: 146
TH_L2PA: 106, l2miss_BW: 43, llc_miss_BW: 43
L2_PA_ratio set to: 146
TH_L2PA: 106, l2miss_BW: 45, llc_miss_BW: 45
L2_PA_ratio set to: 135
TH_L2PA: 106, l2miss_BW: 44, llc_miss_BW: 44
L2_PA_ratio set to: 140
TH_L2PA: 106, l2miss_BW: 44, llc_miss_BW: 44
L2_PA_ratio set to: 140
TH_L2PA: 106, l2miss_BW: 45, llc_miss_BW: 45
L2_PA_ratio set to: 135
TH_L2PA: 106, l2miss_BW: 42, llc_miss_BW: 42
L2_PA_ratio set to: 152
TH_L2PA: 106, l2miss_BW: 43, llc_miss_BW: 43
L2_PA_ratio set to: 146
TH_L2PA: 106, l2miss_BW: 42, llc_miss_BW: 42
L2_PA_ratio set to: 152
TH_L2PA: 106, l2miss_BW: 43, llc_miss_BW: 43
L2_PA_ratio set to: 146
TH_L2PA: 106, l2miss_BW: 43, llc_miss_BW: 43
L2_PA_ratio set to: 146
TH_L2PA: 106, l2miss_BW: 44, llc_miss_BW: 44
L2_PA_ratio set to: 140
TH_L2PA: 106, l2miss_BW: 43, llc_miss_BW: 43
L2_PA_ratio set to: 146
TH_L2PA: 106, l2miss_BW: 43, llc_miss_BW: 43
L2_PA_ratio set to: 146
TH_L2PA: 106, l2miss_BW: 44, llc_miss_BW: 44
L2_PA_ratio set to: 140
TH_L2PA: 106, l2miss_BW: 43, llc_miss_BW: 43
L2_PA_ratio set to: 146
TH_L2PA: 106, l2miss_BW: 43, llc_miss_BW: 43
L2_PA_ratio set to: 146
TH_L2PA: 106, l2miss_BW: 44, llc_miss_BW: 44
L2_PA_ratio set to: 140
TH_L2PA: 106, l2miss_BW: 44, llc_miss_BW: 44
L2_PA_ratio set to: 140
TH_L2PA: 106, l2miss_BW: 43, llc_miss_BW: 43
L2_PA_ratio set to: 146
TH_L2PA: 106, l2miss_BW: 44, llc_miss_BW: 44
L2_PA_ratio set to: 140
TH_L2PA: 106, l2miss_BW: 43, llc_miss_BW: 43
L2_PA_ratio set to: 146
TH_L2PA: 106, l2miss_BW: 43, llc_miss_BW: 43
L2_PA_ratio set to: 146
TH_L2PA: 106, l2miss_BW: 43, llc_miss_BW: 43
L2_PA_ratio set to: 146
TH_L2PA: 106, l2miss_BW: 43, llc_miss_BW: 43
L2_PA_ratio set to: 146
TH_L2PA: 106, l2miss_BW: 42, llc_miss_BW: 42
L2_PA_ratio set to: 152
TH_L2PA: 106, l2miss_BW: 42, llc_miss_BW: 42
L2_PA_ratio set to: 152
TH_L2PA: 106, l2miss_BW: 43, llc_miss_BW: 43
L2_PA_ratio set to: 146
TH_L2PA: 106, l2miss_BW: 44, llc_miss_BW: 44
L2_PA_ratio set to: 140
TH_L2PA: 106, l2miss_BW: 43, llc_miss_BW: 43
L2_PA_ratio set to: 146
TH_L2PA: 106, l2miss_BW: 42, llc_miss_BW: 42
L2_PA_ratio set to: 152
TH_L2PA: 106, l2miss_BW: 42, llc_miss_BW: 42
L2_PA_ratio set to: 152
TH_L2PA: 106, l2miss_BW: 44, llc_miss_BW: 44
L2_PA_ratio set to: 140
TH_L2PA: 106, l2miss_BW: 43, llc_miss_BW: 43
L2_PA_ratio set to: 146
TH_L2PA: 106, l2miss_BW: 43, llc_miss_BW: 43
L2_PA_ratio set to: 146
TH_L2PA: 106, l2miss_BW: 44, llc_miss_BW: 44
L2_PA_ratio set to: 140
TH_L2PA: 106, l2miss_BW: 43, llc_miss_BW: 43
L2_PA_ratio set to: 146
TH_L2PA: 106, l2miss_BW: 44, llc_miss_BW: 44
L2_PA_ratio set to: 140
TH_L2PA: 106, l2miss_BW: 44, llc_miss_BW: 44
L2_PA_ratio set to: 140
TH_L2PA: 106, l2miss_BW: 43, llc_miss_BW: 43
L2_PA_ratio set to: 146
TH_L2PA: 106, l2miss_BW: 43, llc_miss_BW: 43
L2_PA_ratio set to: 146
TH_L2PA: 106, l2miss_BW: 43, llc_miss_BW: 43
L2_PA_ratio set to: 146
TH_L2PA: 106, l2miss_BW: 44, llc_miss_BW: 44
L2_PA_ratio set to: 140
TH_L2PA: 106, l2miss_BW: 45, llc_miss_BW: 45
L2_PA_ratio set to: 135
TH_L2PA: 106, l2miss_BW: 43, llc_miss_BW: 43
L2_PA_ratio set to: 146
TH_L2PA: 106, l2miss_BW: 44, llc_miss_BW: 44
L2_PA_ratio set to: 140
TH_L2PA: 106, l2miss_BW: 44, llc_miss_BW: 44
L2_PA_ratio set to: 140
TH_L2PA: 106, l2miss_BW: 42, llc_miss_BW: 42
L2_PA_ratio set to: 152
TH_L2PA: 106, l2miss_BW: 43, llc_miss_BW: 43
L2_PA_ratio set to: 146
TH_L2PA: 106, l2miss_BW: 44, llc_miss_BW: 44
L2_PA_ratio set to: 140
TH_L2PA: 106, l2miss_BW: 43, llc_miss_BW: 43
L2_PA_ratio set to: 146
TH_L2PA: 106, l2miss_BW: 44, llc_miss_BW: 44
L2_PA_ratio set to: 140
TH_L2PA: 106, l2miss_BW: 45, llc_miss_BW: 45
L2_PA_ratio set to: 135
TH_L2PA: 106, l2miss_BW: 43, llc_miss_BW: 43
L2_PA_ratio set to: 146
TH_L2PA: 106, l2miss_BW: 44, llc_miss_BW: 44
L2_PA_ratio set to: 140
TH_L2PA: 106, l2miss_BW: 43, llc_miss_BW: 43
L2_PA_ratio set to: 146
TH_L2PA: 106, l2miss_BW: 43, llc_miss_BW: 43
L2_PA_ratio set to: 146
TH_L2PA: 106, l2miss_BW: 43, llc_miss_BW: 43
L2_PA_ratio set to: 146
TH_L2PA: 106, l2miss_BW: 42, llc_miss_BW: 42
L2_PA_ratio set to: 152
TH_L2PA: 106, l2miss_BW: 44, llc_miss_BW: 44
L2_PA_ratio set to: 140
TH_L2PA: 106, l2miss_BW: 43, llc_miss_BW: 43
L2_PA_ratio set to: 146
TH_L2PA: 106, l2miss_BW: 43, llc_miss_BW: 43
L2_PA_ratio set to: 146
TH_L2PA: 106, l2miss_BW: 44, llc_miss_BW: 44
L2_PA_ratio set to: 140
TH_L2PA: 106, l2miss_BW: 42, llc_miss_BW: 42
L2_PA_ratio set to: 152
TH_L2PA: 106, l2miss_BW: 42, llc_miss_BW: 42
L2_PA_ratio set to: 152
TH_L2PA: 106, l2miss_BW: 43, llc_miss_BW: 43
L2_PA_ratio set to: 146
TH_L2PA: 106, l2miss_BW: 44, llc_miss_BW: 44
L2_PA_ratio set to: 140
TH_L2PA: 106, l2miss_BW: 45, llc_miss_BW: 45
L2_PA_ratio set to: 135
TH_L2PA: 106, l2miss_BW: 43, llc_miss_BW: 43
L2_PA_ratio set to: 146
TH_L2PA: 106, l2miss_BW: 43, llc_miss_BW: 43
L2_PA_ratio set to: 146
TH_L2PA: 106, l2miss_BW: 43, llc_miss_BW: 43
L2_PA_ratio set to: 146
TH_L2PA: 106, l2miss_BW: 44, llc_miss_BW: 44
L2_PA_ratio set to: 140
TH_L2PA: 106, l2miss_BW: 45, llc_miss_BW: 45
L2_PA_ratio set to: 135
TH_L2PA: 106, l2miss_BW: 43, llc_miss_BW: 43
L2_PA_ratio set to: 146
TH_L2PA: 106, l2miss_BW: 42, llc_miss_BW: 42
L2_PA_ratio set to: 152
TH_L2PA: 106, l2miss_BW: 44, llc_miss_BW: 44
L2_PA_ratio set to: 140
TH_L2PA: 106, l2miss_BW: 44, llc_miss_BW: 44
L2_PA_ratio set to: 140
TH_L2PA: 106, l2miss_BW: 43, llc_miss_BW: 43
L2_PA_ratio set to: 146
TH_L2PA: 106, l2miss_BW: 44, llc_miss_BW: 44
L2_PA_ratio set to: 140
TH_L2PA: 106, l2miss_BW: 43, llc_miss_BW: 43
L2_PA_ratio set to: 146
TH_L2PA: 106, l2miss_BW: 43, llc_miss_BW: 43
L2_PA_ratio set to: 146
TH_L2PA: 106, l2miss_BW: 43, llc_miss_BW: 43
L2_PA_ratio set to: 146
TH_L2PA: 106, l2miss_BW: 43, llc_miss_BW: 43
L2_PA_ratio set to: 146
TH_L2PA: 106, l2miss_BW: 43, llc_miss_BW: 43
L2_PA_ratio set to: 146
TH_L2PA: 106, l2miss_BW: 44, llc_miss_BW: 44
L2_PA_ratio set to: 140
TH_L2PA: 106, l2miss_BW: 42, llc_miss_BW: 42
L2_PA_ratio set to: 152
TH_L2PA: 106, l2miss_BW: 43, llc_miss_BW: 43
L2_PA_ratio set to: 146
TH_L2PA: 106, l2miss_BW: 45, llc_miss_BW: 45
L2_PA_ratio set to: 135
TH_L2PA: 106, l2miss_BW: 45, llc_miss_BW: 45
L2_PA_ratio set to: 135
TH_L2PA: 106, l2miss_BW: 44, llc_miss_BW: 44
L2_PA_ratio set to: 140
TH_L2PA: 106, l2miss_BW: 45, llc_miss_BW: 45
L2_PA_ratio set to: 135
TH_L2PA: 106, l2miss_BW: 42, llc_miss_BW: 42
L2_PA_ratio set to: 152
TH_L2PA: 106, l2miss_BW: 43, llc_miss_BW: 43
L2_PA_ratio set to: 146
TH_L2PA: 106, l2miss_BW: 44, llc_miss_BW: 44
L2_PA_ratio set to: 140
TH_L2PA: 106, l2miss_BW: 44, llc_miss_BW: 44
L2_PA_ratio set to: 140
TH_L2PA: 106, l2miss_BW: 43, llc_miss_BW: 43
L2_PA_ratio set to: 146
TH_L2PA: 106, l2miss_BW: 44, llc_miss_BW: 44
L2_PA_ratio set to: 140
TH_L2PA: 106, l2miss_BW: 44, llc_miss_BW: 44
L2_PA_ratio set to: 140
TH_L2PA: 106, l2miss_BW: 43, llc_miss_BW: 43
L2_PA_ratio set to: 146
TH_L2PA: 106, l2miss_BW: 43, llc_miss_BW: 43
L2_PA_ratio set to: 146
TH_L2PA: 106, l2miss_BW: 43, llc_miss_BW: 43
L2_PA_ratio set to: 146
TH_L2PA: 106, l2miss_BW: 44, llc_miss_BW: 44
L2_PA_ratio set to: 140
TH_L2PA: 106, l2miss_BW: 43, llc_miss_BW: 43
L2_PA_ratio set to: 146
TH_L2PA: 106, l2miss_BW: 44, llc_miss_BW: 44
L2_PA_ratio set to: 140
TH_L2PA: 106, l2miss_BW: 43, llc_miss_BW: 43
L2_PA_ratio set to: 146
TH_L2PA: 106, l2miss_BW: 44, llc_miss_BW: 44
L2_PA_ratio set to: 140
TH_L2PA: 106, l2miss_BW: 45, llc_miss_BW: 45
L2_PA_ratio set to: 135
TH_L2PA: 106, l2miss_BW: 44, llc_miss_BW: 44
L2_PA_ratio set to: 140
TH_L2PA: 106, l2miss_BW: 43, llc_miss_BW: 43
L2_PA_ratio set to: 146
TH_L2PA: 106, l2miss_BW: 44, llc_miss_BW: 44
L2_PA_ratio set to: 140
TH_L2PA: 106, l2miss_BW: 43, llc_miss_BW: 43
L2_PA_ratio set to: 146
TH_L2PA: 106, l2miss_BW: 42, llc_miss_BW: 42
L2_PA_ratio set to: 152
TH_L2PA: 106, l2miss_BW: 44, llc_miss_BW: 44
L2_PA_ratio set to: 140
TH_L2PA: 106, l2miss_BW: 43, llc_miss_BW: 43
L2_PA_ratio set to: 146
TH_L2PA: 106, l2miss_BW: 42, llc_miss_BW: 42
L2_PA_ratio set to: 152
TH_L2PA: 106, l2miss_BW: 43, llc_miss_BW: 43
L2_PA_ratio set to: 146
TH_L2PA: 106, l2miss_BW: 43, llc_miss_BW: 43
L2_PA_ratio set to: 146
TH_L2PA: 106, l2miss_BW: 42, llc_miss_BW: 42
L2_PA_ratio set to: 152
TH_L2PA: 106, l2miss_BW: 42, llc_miss_BW: 42
L2_PA_ratio set to: 152
TH_L2PA: 106, l2miss_BW: 43, llc_miss_BW: 43
L2_PA_ratio set to: 146
TH_L2PA: 106, l2miss_BW: 43, llc_miss_BW: 43
L2_PA_ratio set to: 146
TH_L2PA: 106, l2miss_BW: 43, llc_miss_BW: 43
L2_PA_ratio set to: 146
TH_L2PA: 106, l2miss_BW: 44, llc_miss_BW: 44
L2_PA_ratio set to: 140
TH_L2PA: 106, l2miss_BW: 44, llc_miss_BW: 44
L2_PA_ratio set to: 140
TH_L2PA: 106, l2miss_BW: 43, llc_miss_BW: 43
L2_PA_ratio set to: 146
TH_L2PA: 106, l2miss_BW: 44, llc_miss_BW: 44
L2_PA_ratio set to: 140
TH_L2PA: 106, l2miss_BW: 45, llc_miss_BW: 45
L2_PA_ratio set to: 135
TH_L2PA: 106, l2miss_BW: 44, llc_miss_BW: 44
L2_PA_ratio set to: 140
TH_L2PA: 106, l2miss_BW: 44, llc_miss_BW: 44
L2_PA_ratio set to: 140
TH_L2PA: 106, l2miss_BW: 44, llc_miss_BW: 44
L2_PA_ratio set to: 140
TH_L2PA: 106, l2miss_BW: 43, llc_miss_BW: 43
L2_PA_ratio set to: 146
TH_L2PA: 106, l2miss_BW: 45, llc_miss_BW: 45
L2_PA_ratio set to: 135
TH_L2PA: 106, l2miss_BW: 43, llc_miss_BW: 43
L2_PA_ratio set to: 146
TH_L2PA: 106, l2miss_BW: 42, llc_miss_BW: 42
L2_PA_ratio set to: 152
TH_L2PA: 106, l2miss_BW: 43, llc_miss_BW: 43
L2_PA_ratio set to: 146
TH_L2PA: 106, l2miss_BW: 42, llc_miss_BW: 42
L2_PA_ratio set to: 152
TH_L2PA: 106, l2miss_BW: 43, llc_miss_BW: 43
L2_PA_ratio set to: 146
TH_L2PA: 106, l2miss_BW: 44, llc_miss_BW: 44
L2_PA_ratio set to: 140
TH_L2PA: 106, l2miss_BW: 44, llc_miss_BW: 44
L2_PA_ratio set to: 140
TH_L2PA: 106, l2miss_BW: 43, llc_miss_BW: 43
L2_PA_ratio set to: 146
TH_L2PA: 106, l2miss_BW: 44, llc_miss_BW: 44
L2_PA_ratio set to: 140
TH_L2PA: 106, l2miss_BW: 45, llc_miss_BW: 45
L2_PA_ratio set to: 135
TH_L2PA: 106, l2miss_BW: 43, llc_miss_BW: 43
L2_PA_ratio set to: 146
TH_L2PA: 106, l2miss_BW: 43, llc_miss_BW: 43
L2_PA_ratio set to: 146
TH_L2PA: 106, l2miss_BW: 44, llc_miss_BW: 44
L2_PA_ratio set to: 140
Heartbeat CPU 1 instructions: 10000005 cycles: 24763040 heartbeat IPC: 0.403828 cumulative IPC: 0.367686 (Simulation time: 0 hr 20 min 21 sec) 
PAM Allow Rate: 140%
TH_L2PA: 106, l2miss_BW: 43, llc_miss_BW: 43
L2_PA_ratio set to: 146
TH_L2PA: 106, l2miss_BW: 43, llc_miss_BW: 43
L2_PA_ratio set to: 146
TH_L2PA: 106, l2miss_BW: 43, llc_miss_BW: 43
L2_PA_ratio set to: 146
TH_L2PA: 106, l2miss_BW: 43, llc_miss_BW: 43
L2_PA_ratio set to: 146
Heartbeat CPU 2 instructions: 10000005 cycles: 25185797 heartbeat IPC: 0.397049 cumulative IPC: 0.361444 (Simulation time: 0 hr 20 min 41 sec) 
PAM Allow Rate: 146%
TH_L2PA: 106, l2miss_BW: 43, llc_miss_BW: 43
L2_PA_ratio set to: 146
Heartbeat CPU 5 instructions: 10000005 cycles: 25219223 heartbeat IPC: 0.396523 cumulative IPC: 0.360957 (Simulation time: 0 hr 20 min 43 sec) 
PAM Allow Rate: 146%
Heartbeat CPU 0 instructions: 10000005 cycles: 25223486 heartbeat IPC: 0.396456 cumulative IPC: 0.360896 (Simulation time: 0 hr 20 min 43 sec) 
PAM Allow Rate: 146%
TH_L2PA: 106, l2miss_BW: 43, llc_miss_BW: 43
L2_PA_ratio set to: 146
TH_L2PA: 106, l2miss_BW: 44, llc_miss_BW: 44
L2_PA_ratio set to: 140
TH_L2PA: 106, l2miss_BW: 44, llc_miss_BW: 44
L2_PA_ratio set to: 140
Heartbeat CPU 9 instructions: 10000005 cycles: 25539661 heartbeat IPC: 0.391548 cumulative IPC: 0.356378 (Simulation time: 0 hr 20 min 59 sec) 
PAM Allow Rate: 140%
Heartbeat CPU 3 instructions: 10000005 cycles: 25560174 heartbeat IPC: 0.391234 cumulative IPC: 0.356093 (Simulation time: 0 hr 21 min 0 sec) 
PAM Allow Rate: 140%
TH_L2PA: 106, l2miss_BW: 43, llc_miss_BW: 43
L2_PA_ratio set to: 146
Heartbeat CPU 4 instructions: 10000005 cycles: 25623865 heartbeat IPC: 0.390261 cumulative IPC: 0.355194 (Simulation time: 0 hr 21 min 3 sec) 
PAM Allow Rate: 146%
Heartbeat CPU 6 instructions: 10000005 cycles: 25655392 heartbeat IPC: 0.389782 cumulative IPC: 0.354753 (Simulation time: 0 hr 21 min 4 sec) 
PAM Allow Rate: 146%
TH_L2PA: 106, l2miss_BW: 42, llc_miss_BW: 42
L2_PA_ratio set to: 152
TH_L2PA: 106, l2miss_BW: 43, llc_miss_BW: 43
L2_PA_ratio set to: 146
Heartbeat CPU 10 instructions: 10000005 cycles: 25848979 heartbeat IPC: 0.386863 cumulative IPC: 0.352068 (Simulation time: 0 hr 21 min 14 sec) 
PAM Allow Rate: 146%
Heartbeat CPU 7 instructions: 10000005 cycles: 25849901 heartbeat IPC: 0.386849 cumulative IPC: 0.352055 (Simulation time: 0 hr 21 min 14 sec) 
PAM Allow Rate: 146%
Heartbeat CPU 8 instructions: 10000005 cycles: 25881750 heartbeat IPC: 0.386373 cumulative IPC: 0.351616 (Simulation time: 0 hr 21 min 15 sec) 
PAM Allow Rate: 146%
TH_L2PA: 106, l2miss_BW: 43, llc_miss_BW: 43
L2_PA_ratio set to: 146
Heartbeat CPU 11 instructions: 10000005 cycles: 25991860 heartbeat IPC: 0.384736 cumulative IPC: 0.350113 (Simulation time: 0 hr 21 min 21 sec) 
PAM Allow Rate: 146%
TH_L2PA: 106, l2miss_BW: 44, llc_miss_BW: 44
L2_PA_ratio set to: 140
TH_L2PA: 106, l2miss_BW: 42, llc_miss_BW: 42
L2_PA_ratio set to: 152
TH_L2PA: 106, l2miss_BW: 45, llc_miss_BW: 45
L2_PA_ratio set to: 135
TH_L2PA: 106, l2miss_BW: 45, llc_miss_BW: 45
L2_PA_ratio set to: 135
TH_L2PA: 106, l2miss_BW: 43, llc_miss_BW: 43
L2_PA_ratio set to: 146
TH_L2PA: 106, l2miss_BW: 41, llc_miss_BW: 41
L2_PA_ratio set to: 158
TH_L2PA: 106, l2miss_BW: 44, llc_miss_BW: 44
L2_PA_ratio set to: 140
TH_L2PA: 106, l2miss_BW: 43, llc_miss_BW: 43
L2_PA_ratio set to: 146
TH_L2PA: 106, l2miss_BW: 43, llc_miss_BW: 43
L2_PA_ratio set to: 146
TH_L2PA: 106, l2miss_BW: 45, llc_miss_BW: 45
L2_PA_ratio set to: 135
TH_L2PA: 106, l2miss_BW: 42, llc_miss_BW: 42
L2_PA_ratio set to: 152
TH_L2PA: 106, l2miss_BW: 43, llc_miss_BW: 43
L2_PA_ratio set to: 146
TH_L2PA: 106, l2miss_BW: 44, llc_miss_BW: 44
L2_PA_ratio set to: 140
TH_L2PA: 106, l2miss_BW: 43, llc_miss_BW: 43
L2_PA_ratio set to: 146
TH_L2PA: 106, l2miss_BW: 43, llc_miss_BW: 43
L2_PA_ratio set to: 146
TH_L2PA: 106, l2miss_BW: 43, llc_miss_BW: 43
L2_PA_ratio set to: 146
TH_L2PA: 106, l2miss_BW: 43, llc_miss_BW: 43
L2_PA_ratio set to: 146
TH_L2PA: 106, l2miss_BW: 44, llc_miss_BW: 44
L2_PA_ratio set to: 140
TH_L2PA: 106, l2miss_BW: 43, llc_miss_BW: 43
L2_PA_ratio set to: 146
TH_L2PA: 106, l2miss_BW: 44, llc_miss_BW: 44
L2_PA_ratio set to: 140
TH_L2PA: 106, l2miss_BW: 44, llc_miss_BW: 44
L2_PA_ratio set to: 140
TH_L2PA: 106, l2miss_BW: 44, llc_miss_BW: 44
L2_PA_ratio set to: 140
TH_L2PA: 106, l2miss_BW: 44, llc_miss_BW: 44
L2_PA_ratio set to: 140
TH_L2PA: 106, l2miss_BW: 44, llc_miss_BW: 44
L2_PA_ratio set to: 140
TH_L2PA: 106, l2miss_BW: 43, llc_miss_BW: 43
L2_PA_ratio set to: 146
TH_L2PA: 106, l2miss_BW: 45, llc_miss_BW: 45
L2_PA_ratio set to: 135
TH_L2PA: 106, l2miss_BW: 44, llc_miss_BW: 44
L2_PA_ratio set to: 140
TH_L2PA: 106, l2miss_BW: 43, llc_miss_BW: 43
L2_PA_ratio set to: 146
TH_L2PA: 106, l2miss_BW: 44, llc_miss_BW: 44
L2_PA_ratio set to: 140
TH_L2PA: 106, l2miss_BW: 42, llc_miss_BW: 42
L2_PA_ratio set to: 152
TH_L2PA: 106, l2miss_BW: 43, llc_miss_BW: 43
L2_PA_ratio set to: 146
TH_L2PA: 106, l2miss_BW: 44, llc_miss_BW: 44
L2_PA_ratio set to: 140
TH_L2PA: 106, l2miss_BW: 44, llc_miss_BW: 44
L2_PA_ratio set to: 140
TH_L2PA: 106, l2miss_BW: 43, llc_miss_BW: 43
L2_PA_ratio set to: 146
TH_L2PA: 106, l2miss_BW: 44, llc_miss_BW: 44
L2_PA_ratio set to: 140
TH_L2PA: 106, l2miss_BW: 44, llc_miss_BW: 44
L2_PA_ratio set to: 140
TH_L2PA: 106, l2miss_BW: 43, llc_miss_BW: 43
L2_PA_ratio set to: 146
TH_L2PA: 106, l2miss_BW: 43, llc_miss_BW: 43
L2_PA_ratio set to: 146
TH_L2PA: 106, l2miss_BW: 44, llc_miss_BW: 44
L2_PA_ratio set to: 140
TH_L2PA: 106, l2miss_BW: 44, llc_miss_BW: 44
L2_PA_ratio set to: 140
TH_L2PA: 106, l2miss_BW: 44, llc_miss_BW: 44
L2_PA_ratio set to: 140
TH_L2PA: 106, l2miss_BW: 44, llc_miss_BW: 44
L2_PA_ratio set to: 140
TH_L2PA: 106, l2miss_BW: 43, llc_miss_BW: 43
L2_PA_ratio set to: 146
TH_L2PA: 106, l2miss_BW: 44, llc_miss_BW: 44
L2_PA_ratio set to: 140
TH_L2PA: 106, l2miss_BW: 44, llc_miss_BW: 44
L2_PA_ratio set to: 140
TH_L2PA: 106, l2miss_BW: 42, llc_miss_BW: 42
L2_PA_ratio set to: 152
TH_L2PA: 106, l2miss_BW: 43, llc_miss_BW: 43
L2_PA_ratio set to: 146
TH_L2PA: 106, l2miss_BW: 44, llc_miss_BW: 44
L2_PA_ratio set to: 140
TH_L2PA: 106, l2miss_BW: 41, llc_miss_BW: 41
L2_PA_ratio set to: 158
TH_L2PA: 106, l2miss_BW: 44, llc_miss_BW: 44
L2_PA_ratio set to: 140
TH_L2PA: 106, l2miss_BW: 43, llc_miss_BW: 43
L2_PA_ratio set to: 146
TH_L2PA: 106, l2miss_BW: 43, llc_miss_BW: 43
L2_PA_ratio set to: 146
TH_L2PA: 106, l2miss_BW: 43, llc_miss_BW: 43
L2_PA_ratio set to: 146
TH_L2PA: 106, l2miss_BW: 44, llc_miss_BW: 44
L2_PA_ratio set to: 140
TH_L2PA: 106, l2miss_BW: 44, llc_miss_BW: 44
L2_PA_ratio set to: 140
TH_L2PA: 106, l2miss_BW: 43, llc_miss_BW: 43
L2_PA_ratio set to: 146
TH_L2PA: 106, l2miss_BW: 44, llc_miss_BW: 44
L2_PA_ratio set to: 140
TH_L2PA: 106, l2miss_BW: 45, llc_miss_BW: 45
L2_PA_ratio set to: 135
TH_L2PA: 106, l2miss_BW: 42, llc_miss_BW: 42
L2_PA_ratio set to: 152
TH_L2PA: 106, l2miss_BW: 43, llc_miss_BW: 43
L2_PA_ratio set to: 146
TH_L2PA: 106, l2miss_BW: 44, llc_miss_BW: 44
L2_PA_ratio set to: 140
TH_L2PA: 106, l2miss_BW: 42, llc_miss_BW: 42
L2_PA_ratio set to: 152
TH_L2PA: 106, l2miss_BW: 43, llc_miss_BW: 43
L2_PA_ratio set to: 146
TH_L2PA: 106, l2miss_BW: 45, llc_miss_BW: 45
L2_PA_ratio set to: 135
TH_L2PA: 106, l2miss_BW: 44, llc_miss_BW: 44
L2_PA_ratio set to: 140
TH_L2PA: 106, l2miss_BW: 43, llc_miss_BW: 43
L2_PA_ratio set to: 146
TH_L2PA: 106, l2miss_BW: 44, llc_miss_BW: 44
L2_PA_ratio set to: 140
TH_L2PA: 106, l2miss_BW: 44, llc_miss_BW: 44
L2_PA_ratio set to: 140
TH_L2PA: 106, l2miss_BW: 43, llc_miss_BW: 43
L2_PA_ratio set to: 146
TH_L2PA: 106, l2miss_BW: 44, llc_miss_BW: 44
L2_PA_ratio set to: 140
TH_L2PA: 106, l2miss_BW: 44, llc_miss_BW: 44
L2_PA_ratio set to: 140
TH_L2PA: 106, l2miss_BW: 44, llc_miss_BW: 44
L2_PA_ratio set to: 140
TH_L2PA: 106, l2miss_BW: 45, llc_miss_BW: 45
L2_PA_ratio set to: 135
TH_L2PA: 106, l2miss_BW: 42, llc_miss_BW: 42
L2_PA_ratio set to: 152
TH_L2PA: 106, l2miss_BW: 43, llc_miss_BW: 43
L2_PA_ratio set to: 146
TH_L2PA: 106, l2miss_BW: 44, llc_miss_BW: 44
L2_PA_ratio set to: 140
TH_L2PA: 106, l2miss_BW: 43, llc_miss_BW: 43
L2_PA_ratio set to: 146
TH_L2PA: 106, l2miss_BW: 43, llc_miss_BW: 43
L2_PA_ratio set to: 146
TH_L2PA: 106, l2miss_BW: 44, llc_miss_BW: 44
L2_PA_ratio set to: 140
TH_L2PA: 106, l2miss_BW: 44, llc_miss_BW: 44
L2_PA_ratio set to: 140
TH_L2PA: 106, l2miss_BW: 43, llc_miss_BW: 43
L2_PA_ratio set to: 146
TH_L2PA: 106, l2miss_BW: 44, llc_miss_BW: 44
L2_PA_ratio set to: 140
TH_L2PA: 106, l2miss_BW: 44, llc_miss_BW: 44
L2_PA_ratio set to: 140
TH_L2PA: 106, l2miss_BW: 43, llc_miss_BW: 43
L2_PA_ratio set to: 146
TH_L2PA: 106, l2miss_BW: 43, llc_miss_BW: 43
L2_PA_ratio set to: 146
TH_L2PA: 106, l2miss_BW: 44, llc_miss_BW: 44
L2_PA_ratio set to: 140
TH_L2PA: 106, l2miss_BW: 44, llc_miss_BW: 44
L2_PA_ratio set to: 140
TH_L2PA: 106, l2miss_BW: 42, llc_miss_BW: 42
L2_PA_ratio set to: 152
TH_L2PA: 106, l2miss_BW: 44, llc_miss_BW: 44
L2_PA_ratio set to: 140
TH_L2PA: 106, l2miss_BW: 44, llc_miss_BW: 44
L2_PA_ratio set to: 140
TH_L2PA: 106, l2miss_BW: 44, llc_miss_BW: 44
L2_PA_ratio set to: 140
TH_L2PA: 106, l2miss_BW: 44, llc_miss_BW: 44
L2_PA_ratio set to: 140
TH_L2PA: 106, l2miss_BW: 43, llc_miss_BW: 43
L2_PA_ratio set to: 146
TH_L2PA: 106, l2miss_BW: 43, llc_miss_BW: 43
L2_PA_ratio set to: 146
TH_L2PA: 106, l2miss_BW: 44, llc_miss_BW: 44
L2_PA_ratio set to: 140
TH_L2PA: 106, l2miss_BW: 44, llc_miss_BW: 44
L2_PA_ratio set to: 140
TH_L2PA: 106, l2miss_BW: 43, llc_miss_BW: 43
L2_PA_ratio set to: 146
TH_L2PA: 106, l2miss_BW: 45, llc_miss_BW: 45
L2_PA_ratio set to: 135
TH_L2PA: 106, l2miss_BW: 44, llc_miss_BW: 44
L2_PA_ratio set to: 140
TH_L2PA: 106, l2miss_BW: 43, llc_miss_BW: 43
L2_PA_ratio set to: 146
TH_L2PA: 106, l2miss_BW: 42, llc_miss_BW: 42
L2_PA_ratio set to: 152
TH_L2PA: 106, l2miss_BW: 43, llc_miss_BW: 43
L2_PA_ratio set to: 146
TH_L2PA: 106, l2miss_BW: 43, llc_miss_BW: 43
L2_PA_ratio set to: 146
TH_L2PA: 106, l2miss_BW: 44, llc_miss_BW: 44
L2_PA_ratio set to: 140
TH_L2PA: 106, l2miss_BW: 43, llc_miss_BW: 43
L2_PA_ratio set to: 146
TH_L2PA: 106, l2miss_BW: 43, llc_miss_BW: 43
L2_PA_ratio set to: 146
TH_L2PA: 106, l2miss_BW: 43, llc_miss_BW: 43
L2_PA_ratio set to: 146
TH_L2PA: 106, l2miss_BW: 43, llc_miss_BW: 43
L2_PA_ratio set to: 146
TH_L2PA: 106, l2miss_BW: 43, llc_miss_BW: 43
L2_PA_ratio set to: 146
TH_L2PA: 106, l2miss_BW: 43, llc_miss_BW: 43
L2_PA_ratio set to: 146
TH_L2PA: 106, l2miss_BW: 44, llc_miss_BW: 44
L2_PA_ratio set to: 140
TH_L2PA: 106, l2miss_BW: 42, llc_miss_BW: 42
L2_PA_ratio set to: 152
TH_L2PA: 106, l2miss_BW: 43, llc_miss_BW: 43
L2_PA_ratio set to: 146
TH_L2PA: 106, l2miss_BW: 44, llc_miss_BW: 44
L2_PA_ratio set to: 140
TH_L2PA: 106, l2miss_BW: 44, llc_miss_BW: 44
L2_PA_ratio set to: 140
TH_L2PA: 106, l2miss_BW: 43, llc_miss_BW: 43
L2_PA_ratio set to: 146
TH_L2PA: 106, l2miss_BW: 43, llc_miss_BW: 43
L2_PA_ratio set to: 146
TH_L2PA: 106, l2miss_BW: 44, llc_miss_BW: 44
L2_PA_ratio set to: 140
TH_L2PA: 106, l2miss_BW: 44, llc_miss_BW: 44
L2_PA_ratio set to: 140
TH_L2PA: 106, l2miss_BW: 43, llc_miss_BW: 43
L2_PA_ratio set to: 146
TH_L2PA: 106, l2miss_BW: 44, llc_miss_BW: 44
L2_PA_ratio set to: 140
TH_L2PA: 106, l2miss_BW: 45, llc_miss_BW: 45
L2_PA_ratio set to: 135
TH_L2PA: 106, l2miss_BW: 44, llc_miss_BW: 44
L2_PA_ratio set to: 140
TH_L2PA: 106, l2miss_BW: 45, llc_miss_BW: 45
L2_PA_ratio set to: 135
TH_L2PA: 106, l2miss_BW: 43, llc_miss_BW: 43
L2_PA_ratio set to: 146
TH_L2PA: 106, l2miss_BW: 42, llc_miss_BW: 42
L2_PA_ratio set to: 152
TH_L2PA: 106, l2miss_BW: 44, llc_miss_BW: 44
L2_PA_ratio set to: 140
TH_L2PA: 106, l2miss_BW: 43, llc_miss_BW: 43
L2_PA_ratio set to: 146
TH_L2PA: 106, l2miss_BW: 43, llc_miss_BW: 43
L2_PA_ratio set to: 146
TH_L2PA: 106, l2miss_BW: 45, llc_miss_BW: 45
L2_PA_ratio set to: 135
TH_L2PA: 106, l2miss_BW: 43, llc_miss_BW: 43
L2_PA_ratio set to: 146
TH_L2PA: 106, l2miss_BW: 43, llc_miss_BW: 43
L2_PA_ratio set to: 146
TH_L2PA: 106, l2miss_BW: 45, llc_miss_BW: 45
L2_PA_ratio set to: 135
TH_L2PA: 106, l2miss_BW: 44, llc_miss_BW: 44
L2_PA_ratio set to: 140
TH_L2PA: 106, l2miss_BW: 41, llc_miss_BW: 41
L2_PA_ratio set to: 158
TH_L2PA: 106, l2miss_BW: 43, llc_miss_BW: 43
L2_PA_ratio set to: 146
TH_L2PA: 106, l2miss_BW: 44, llc_miss_BW: 44
L2_PA_ratio set to: 140
TH_L2PA: 106, l2miss_BW: 44, llc_miss_BW: 44
L2_PA_ratio set to: 140
TH_L2PA: 106, l2miss_BW: 43, llc_miss_BW: 43
L2_PA_ratio set to: 146
TH_L2PA: 106, l2miss_BW: 44, llc_miss_BW: 44
L2_PA_ratio set to: 140
TH_L2PA: 106, l2miss_BW: 42, llc_miss_BW: 42
L2_PA_ratio set to: 152
TH_L2PA: 106, l2miss_BW: 45, llc_miss_BW: 45
L2_PA_ratio set to: 135
TH_L2PA: 106, l2miss_BW: 44, llc_miss_BW: 44
L2_PA_ratio set to: 140
TH_L2PA: 106, l2miss_BW: 43, llc_miss_BW: 43
L2_PA_ratio set to: 146
TH_L2PA: 106, l2miss_BW: 44, llc_miss_BW: 44
L2_PA_ratio set to: 140
TH_L2PA: 106, l2miss_BW: 43, llc_miss_BW: 43
L2_PA_ratio set to: 146
TH_L2PA: 106, l2miss_BW: 43, llc_miss_BW: 43
L2_PA_ratio set to: 146
TH_L2PA: 106, l2miss_BW: 43, llc_miss_BW: 43
L2_PA_ratio set to: 146
TH_L2PA: 106, l2miss_BW: 44, llc_miss_BW: 44
L2_PA_ratio set to: 140
TH_L2PA: 106, l2miss_BW: 45, llc_miss_BW: 45
L2_PA_ratio set to: 135
TH_L2PA: 106, l2miss_BW: 44, llc_miss_BW: 44
L2_PA_ratio set to: 140
TH_L2PA: 106, l2miss_BW: 43, llc_miss_BW: 43
L2_PA_ratio set to: 146
TH_L2PA: 106, l2miss_BW: 43, llc_miss_BW: 43
L2_PA_ratio set to: 146
TH_L2PA: 106, l2miss_BW: 43, llc_miss_BW: 43
L2_PA_ratio set to: 146
TH_L2PA: 106, l2miss_BW: 43, llc_miss_BW: 43
L2_PA_ratio set to: 146
TH_L2PA: 106, l2miss_BW: 43, llc_miss_BW: 43
L2_PA_ratio set to: 146
TH_L2PA: 106, l2miss_BW: 43, llc_miss_BW: 43
L2_PA_ratio set to: 146
TH_L2PA: 106, l2miss_BW: 43, llc_miss_BW: 43
L2_PA_ratio set to: 146
TH_L2PA: 106, l2miss_BW: 44, llc_miss_BW: 44
L2_PA_ratio set to: 140
TH_L2PA: 106, l2miss_BW: 44, llc_miss_BW: 44
L2_PA_ratio set to: 140
TH_L2PA: 106, l2miss_BW: 44, llc_miss_BW: 44
L2_PA_ratio set to: 140
TH_L2PA: 106, l2miss_BW: 44, llc_miss_BW: 44
L2_PA_ratio set to: 140
TH_L2PA: 106, l2miss_BW: 43, llc_miss_BW: 43
L2_PA_ratio set to: 146
TH_L2PA: 106, l2miss_BW: 43, llc_miss_BW: 43
L2_PA_ratio set to: 146
TH_L2PA: 106, l2miss_BW: 44, llc_miss_BW: 44
L2_PA_ratio set to: 140
TH_L2PA: 106, l2miss_BW: 43, llc_miss_BW: 43
L2_PA_ratio set to: 146
TH_L2PA: 106, l2miss_BW: 43, llc_miss_BW: 43
L2_PA_ratio set to: 146
TH_L2PA: 106, l2miss_BW: 42, llc_miss_BW: 42
L2_PA_ratio set to: 152
TH_L2PA: 106, l2miss_BW: 43, llc_miss_BW: 43
L2_PA_ratio set to: 146
TH_L2PA: 106, l2miss_BW: 43, llc_miss_BW: 43
L2_PA_ratio set to: 146
TH_L2PA: 106, l2miss_BW: 43, llc_miss_BW: 43
L2_PA_ratio set to: 146
TH_L2PA: 106, l2miss_BW: 43, llc_miss_BW: 43
L2_PA_ratio set to: 146
TH_L2PA: 106, l2miss_BW: 44, llc_miss_BW: 44
L2_PA_ratio set to: 140
TH_L2PA: 106, l2miss_BW: 43, llc_miss_BW: 43
L2_PA_ratio set to: 146
TH_L2PA: 106, l2miss_BW: 45, llc_miss_BW: 45
L2_PA_ratio set to: 135
TH_L2PA: 106, l2miss_BW: 43, llc_miss_BW: 43
L2_PA_ratio set to: 146
TH_L2PA: 106, l2miss_BW: 43, llc_miss_BW: 43
L2_PA_ratio set to: 146
TH_L2PA: 106, l2miss_BW: 43, llc_miss_BW: 43
L2_PA_ratio set to: 146
TH_L2PA: 106, l2miss_BW: 44, llc_miss_BW: 44
L2_PA_ratio set to: 140
TH_L2PA: 106, l2miss_BW: 44, llc_miss_BW: 44
L2_PA_ratio set to: 140
TH_L2PA: 106, l2miss_BW: 43, llc_miss_BW: 43
L2_PA_ratio set to: 146
TH_L2PA: 106, l2miss_BW: 43, llc_miss_BW: 43
L2_PA_ratio set to: 146
TH_L2PA: 106, l2miss_BW: 43, llc_miss_BW: 43
L2_PA_ratio set to: 146
TH_L2PA: 106, l2miss_BW: 44, llc_miss_BW: 44
L2_PA_ratio set to: 140
TH_L2PA: 106, l2miss_BW: 44, llc_miss_BW: 44
L2_PA_ratio set to: 140
TH_L2PA: 106, l2miss_BW: 43, llc_miss_BW: 43
L2_PA_ratio set to: 146
TH_L2PA: 106, l2miss_BW: 44, llc_miss_BW: 44
L2_PA_ratio set to: 140
TH_L2PA: 106, l2miss_BW: 44, llc_miss_BW: 44
L2_PA_ratio set to: 140
TH_L2PA: 106, l2miss_BW: 43, llc_miss_BW: 43
L2_PA_ratio set to: 146
TH_L2PA: 106, l2miss_BW: 43, llc_miss_BW: 43
L2_PA_ratio set to: 146
TH_L2PA: 106, l2miss_BW: 44, llc_miss_BW: 44
L2_PA_ratio set to: 140
TH_L2PA: 106, l2miss_BW: 43, llc_miss_BW: 43
L2_PA_ratio set to: 146
TH_L2PA: 106, l2miss_BW: 43, llc_miss_BW: 43
L2_PA_ratio set to: 146
TH_L2PA: 106, l2miss_BW: 43, llc_miss_BW: 43
L2_PA_ratio set to: 146
TH_L2PA: 106, l2miss_BW: 43, llc_miss_BW: 43
L2_PA_ratio set to: 146
TH_L2PA: 106, l2miss_BW: 42, llc_miss_BW: 42
L2_PA_ratio set to: 152
TH_L2PA: 106, l2miss_BW: 45, llc_miss_BW: 45
L2_PA_ratio set to: 135
TH_L2PA: 106, l2miss_BW: 43, llc_miss_BW: 43
L2_PA_ratio set to: 146
TH_L2PA: 106, l2miss_BW: 44, llc_miss_BW: 44
L2_PA_ratio set to: 140
TH_L2PA: 106, l2miss_BW: 44, llc_miss_BW: 44
L2_PA_ratio set to: 140
TH_L2PA: 106, l2miss_BW: 43, llc_miss_BW: 43
L2_PA_ratio set to: 146
TH_L2PA: 106, l2miss_BW: 44, llc_miss_BW: 44
L2_PA_ratio set to: 140
TH_L2PA: 106, l2miss_BW: 44, llc_miss_BW: 44
L2_PA_ratio set to: 140
TH_L2PA: 106, l2miss_BW: 43, llc_miss_BW: 43
L2_PA_ratio set to: 146
TH_L2PA: 106, l2miss_BW: 43, llc_miss_BW: 43
L2_PA_ratio set to: 146
TH_L2PA: 106, l2miss_BW: 43, llc_miss_BW: 43
L2_PA_ratio set to: 146
TH_L2PA: 106, l2miss_BW: 44, llc_miss_BW: 44
L2_PA_ratio set to: 140
TH_L2PA: 106, l2miss_BW: 44, llc_miss_BW: 44
L2_PA_ratio set to: 140
TH_L2PA: 106, l2miss_BW: 44, llc_miss_BW: 44
L2_PA_ratio set to: 140
TH_L2PA: 106, l2miss_BW: 44, llc_miss_BW: 44
L2_PA_ratio set to: 140
TH_L2PA: 106, l2miss_BW: 45, llc_miss_BW: 45
L2_PA_ratio set to: 135
TH_L2PA: 106, l2miss_BW: 44, llc_miss_BW: 44
L2_PA_ratio set to: 140
TH_L2PA: 106, l2miss_BW: 44, llc_miss_BW: 44
L2_PA_ratio set to: 140
TH_L2PA: 106, l2miss_BW: 43, llc_miss_BW: 43
L2_PA_ratio set to: 146
TH_L2PA: 106, l2miss_BW: 42, llc_miss_BW: 42
L2_PA_ratio set to: 152
TH_L2PA: 106, l2miss_BW: 42, llc_miss_BW: 42
L2_PA_ratio set to: 152
TH_L2PA: 106, l2miss_BW: 42, llc_miss_BW: 42
L2_PA_ratio set to: 152
TH_L2PA: 106, l2miss_BW: 42, llc_miss_BW: 42
L2_PA_ratio set to: 152
TH_L2PA: 106, l2miss_BW: 44, llc_miss_BW: 44
L2_PA_ratio set to: 140
TH_L2PA: 106, l2miss_BW: 44, llc_miss_BW: 44
L2_PA_ratio set to: 140
TH_L2PA: 106, l2miss_BW: 44, llc_miss_BW: 44
L2_PA_ratio set to: 140
TH_L2PA: 106, l2miss_BW: 45, llc_miss_BW: 45
L2_PA_ratio set to: 135
TH_L2PA: 106, l2miss_BW: 44, llc_miss_BW: 44
L2_PA_ratio set to: 140
TH_L2PA: 106, l2miss_BW: 42, llc_miss_BW: 42
L2_PA_ratio set to: 152
TH_L2PA: 106, l2miss_BW: 44, llc_miss_BW: 44
L2_PA_ratio set to: 140
TH_L2PA: 106, l2miss_BW: 43, llc_miss_BW: 43
L2_PA_ratio set to: 146
TH_L2PA: 106, l2miss_BW: 43, llc_miss_BW: 43
L2_PA_ratio set to: 146
TH_L2PA: 106, l2miss_BW: 45, llc_miss_BW: 45
L2_PA_ratio set to: 135
TH_L2PA: 106, l2miss_BW: 43, llc_miss_BW: 43
L2_PA_ratio set to: 146
TH_L2PA: 106, l2miss_BW: 44, llc_miss_BW: 44
L2_PA_ratio set to: 140
TH_L2PA: 106, l2miss_BW: 43, llc_miss_BW: 43
L2_PA_ratio set to: 146
TH_L2PA: 106, l2miss_BW: 44, llc_miss_BW: 44
L2_PA_ratio set to: 140
TH_L2PA: 106, l2miss_BW: 44, llc_miss_BW: 44
L2_PA_ratio set to: 140
TH_L2PA: 106, l2miss_BW: 44, llc_miss_BW: 44
L2_PA_ratio set to: 140
TH_L2PA: 106, l2miss_BW: 44, llc_miss_BW: 44
L2_PA_ratio set to: 140
TH_L2PA: 106, l2miss_BW: 43, llc_miss_BW: 43
L2_PA_ratio set to: 146
TH_L2PA: 106, l2miss_BW: 43, llc_miss_BW: 43
L2_PA_ratio set to: 146
TH_L2PA: 106, l2miss_BW: 42, llc_miss_BW: 42
L2_PA_ratio set to: 152
TH_L2PA: 106, l2miss_BW: 44, llc_miss_BW: 44
L2_PA_ratio set to: 140
TH_L2PA: 106, l2miss_BW: 42, llc_miss_BW: 42
L2_PA_ratio set to: 152
TH_L2PA: 106, l2miss_BW: 44, llc_miss_BW: 44
L2_PA_ratio set to: 140
TH_L2PA: 106, l2miss_BW: 44, llc_miss_BW: 44
L2_PA_ratio set to: 140
TH_L2PA: 106, l2miss_BW: 44, llc_miss_BW: 44
L2_PA_ratio set to: 140
TH_L2PA: 106, l2miss_BW: 44, llc_miss_BW: 44
L2_PA_ratio set to: 140
TH_L2PA: 106, l2miss_BW: 43, llc_miss_BW: 43
L2_PA_ratio set to: 146
TH_L2PA: 106, l2miss_BW: 45, llc_miss_BW: 45
L2_PA_ratio set to: 135
TH_L2PA: 106, l2miss_BW: 44, llc_miss_BW: 44
L2_PA_ratio set to: 140
TH_L2PA: 106, l2miss_BW: 43, llc_miss_BW: 43
L2_PA_ratio set to: 146
TH_L2PA: 106, l2miss_BW: 41, llc_miss_BW: 41
L2_PA_ratio set to: 158
TH_L2PA: 106, l2miss_BW: 41, llc_miss_BW: 41
L2_PA_ratio set to: 158
TH_L2PA: 106, l2miss_BW: 42, llc_miss_BW: 42
L2_PA_ratio set to: 152
TH_L2PA: 106, l2miss_BW: 44, llc_miss_BW: 44
L2_PA_ratio set to: 140
TH_L2PA: 106, l2miss_BW: 44, llc_miss_BW: 44
L2_PA_ratio set to: 140
TH_L2PA: 106, l2miss_BW: 45, llc_miss_BW: 45
L2_PA_ratio set to: 135
TH_L2PA: 106, l2miss_BW: 44, llc_miss_BW: 44
L2_PA_ratio set to: 140
TH_L2PA: 106, l2miss_BW: 43, llc_miss_BW: 43
L2_PA_ratio set to: 146
TH_L2PA: 106, l2miss_BW: 45, llc_miss_BW: 45
L2_PA_ratio set to: 135
TH_L2PA: 106, l2miss_BW: 44, llc_miss_BW: 44
L2_PA_ratio set to: 140
TH_L2PA: 106, l2miss_BW: 44, llc_miss_BW: 44
L2_PA_ratio set to: 140
TH_L2PA: 106, l2miss_BW: 44, llc_miss_BW: 44
L2_PA_ratio set to: 140
Heartbeat CPU 1 instructions: 20000005 cycles: 51954141 heartbeat IPC: 0.367767 cumulative IPC: 0.367729 (Simulation time: 0 hr 42 min 30 sec) 
PAM Allow Rate: 140%
TH_L2PA: 106, l2miss_BW: 43, llc_miss_BW: 43
L2_PA_ratio set to: 146
TH_L2PA: 106, l2miss_BW: 43, llc_miss_BW: 43
L2_PA_ratio set to: 146
TH_L2PA: 106, l2miss_BW: 43, llc_miss_BW: 43
L2_PA_ratio set to: 146
TH_L2PA: 106, l2miss_BW: 43, llc_miss_BW: 43
L2_PA_ratio set to: 146
TH_L2PA: 106, l2miss_BW: 42, llc_miss_BW: 42
L2_PA_ratio set to: 152
TH_L2PA: 106, l2miss_BW: 42, llc_miss_BW: 42
L2_PA_ratio set to: 152
TH_L2PA: 106, l2miss_BW: 42, llc_miss_BW: 42
L2_PA_ratio set to: 152
TH_L2PA: 106, l2miss_BW: 44, llc_miss_BW: 44
L2_PA_ratio set to: 140
Heartbeat CPU 2 instructions: 20000005 cycles: 52778860 heartbeat IPC: 0.36241 cumulative IPC: 0.361952 (Simulation time: 0 hr 43 min 10 sec) 
PAM Allow Rate: 140%
TH_L2PA: 106, l2miss_BW: 44, llc_miss_BW: 44
L2_PA_ratio set to: 140
Heartbeat CPU 0 instructions: 20000005 cycles: 52804602 heartbeat IPC: 0.362567 cumulative IPC: 0.361774 (Simulation time: 0 hr 43 min 11 sec) 
PAM Allow Rate: 140%
Heartbeat CPU 5 instructions: 20000005 cycles: 52862366 heartbeat IPC: 0.361753 cumulative IPC: 0.361376 (Simulation time: 0 hr 43 min 14 sec) 
PAM Allow Rate: 140%
TH_L2PA: 106, l2miss_BW: 43, llc_miss_BW: 43
L2_PA_ratio set to: 146
TH_L2PA: 106, l2miss_BW: 43, llc_miss_BW: 43
L2_PA_ratio set to: 146
TH_L2PA: 106, l2miss_BW: 44, llc_miss_BW: 44
L2_PA_ratio set to: 140
TH_L2PA: 106, l2miss_BW: 43, llc_miss_BW: 43
L2_PA_ratio set to: 146
TH_L2PA: 106, l2miss_BW: 43, llc_miss_BW: 43
L2_PA_ratio set to: 146
TH_L2PA: 106, l2miss_BW: 43, llc_miss_BW: 43
L2_PA_ratio set to: 146
TH_L2PA: 106, l2miss_BW: 44, llc_miss_BW: 44
L2_PA_ratio set to: 140
Heartbeat CPU 3 instructions: 20000005 cycles: 53582108 heartbeat IPC: 0.356863 cumulative IPC: 0.356498 (Simulation time: 0 hr 43 min 49 sec) 
PAM Allow Rate: 140%
TH_L2PA: 106, l2miss_BW: 44, llc_miss_BW: 44
L2_PA_ratio set to: 140
Heartbeat CPU 9 instructions: 20000005 cycles: 53610620 heartbeat IPC: 0.35624 cumulative IPC: 0.356305 (Simulation time: 0 hr 43 min 50 sec) 
PAM Allow Rate: 140%
Heartbeat CPU 4 instructions: 20000005 cycles: 53674138 heartbeat IPC: 0.356503 cumulative IPC: 0.355881 (Simulation time: 0 hr 43 min 53 sec) 
PAM Allow Rate: 140%
TH_L2PA: 106, l2miss_BW: 42, llc_miss_BW: 42
L2_PA_ratio set to: 152
Heartbeat CPU 6 instructions: 20000005 cycles: 53702014 heartbeat IPC: 0.356549 cumulative IPC: 0.355696 (Simulation time: 0 hr 43 min 55 sec) 
PAM Allow Rate: 152%
TH_L2PA: 106, l2miss_BW: 43, llc_miss_BW: 43
L2_PA_ratio set to: 146
TH_L2PA: 106, l2miss_BW: 44, llc_miss_BW: 44
L2_PA_ratio set to: 140
TH_L2PA: 106, l2miss_BW: 43, llc_miss_BW: 43
L2_PA_ratio set to: 146
TH_L2PA: 106, l2miss_BW: 44, llc_miss_BW: 44
L2_PA_ratio set to: 140
TH_L2PA: 106, l2miss_BW: 43, llc_miss_BW: 43
L2_PA_ratio set to: 146
Heartbeat CPU 7 instructions: 20000005 cycles: 54236905 heartbeat IPC: 0.352274 cumulative IPC: 0.35217 (Simulation time: 0 hr 44 min 21 sec) 
PAM Allow Rate: 146%
Heartbeat CPU 10 instructions: 20000005 cycles: 54244625 heartbeat IPC: 0.352167 cumulative IPC: 0.35212 (Simulation time: 0 hr 44 min 21 sec) 
PAM Allow Rate: 146%
TH_L2PA: 106, l2miss_BW: 44, llc_miss_BW: 44
L2_PA_ratio set to: 140
Heartbeat CPU 8 instructions: 20000005 cycles: 54302699 heartbeat IPC: 0.351853 cumulative IPC: 0.351741 (Simulation time: 0 hr 44 min 24 sec) 
PAM Allow Rate: 140%
TH_L2PA: 106, l2miss_BW: 44, llc_miss_BW: 44
L2_PA_ratio set to: 140
TH_L2PA: 106, l2miss_BW: 44, llc_miss_BW: 44
L2_PA_ratio set to: 140
Heartbeat CPU 11 instructions: 20000005 cycles: 54587552 heartbeat IPC: 0.349703 cumulative IPC: 0.349897 (Simulation time: 0 hr 44 min 38 sec) 
PAM Allow Rate: 140%
TH_L2PA: 106, l2miss_BW: 43, llc_miss_BW: 43
L2_PA_ratio set to: 146
TH_L2PA: 106, l2miss_BW: 44, llc_miss_BW: 44
L2_PA_ratio set to: 140
TH_L2PA: 106, l2miss_BW: 44, llc_miss_BW: 44
L2_PA_ratio set to: 140
TH_L2PA: 106, l2miss_BW: 42, llc_miss_BW: 42
L2_PA_ratio set to: 152
TH_L2PA: 106, l2miss_BW: 44, llc_miss_BW: 44
L2_PA_ratio set to: 140
TH_L2PA: 106, l2miss_BW: 43, llc_miss_BW: 43
L2_PA_ratio set to: 146
TH_L2PA: 106, l2miss_BW: 43, llc_miss_BW: 43
L2_PA_ratio set to: 146
TH_L2PA: 106, l2miss_BW: 44, llc_miss_BW: 44
L2_PA_ratio set to: 140
TH_L2PA: 106, l2miss_BW: 44, llc_miss_BW: 44
L2_PA_ratio set to: 140
TH_L2PA: 106, l2miss_BW: 44, llc_miss_BW: 44
L2_PA_ratio set to: 140
TH_L2PA: 106, l2miss_BW: 43, llc_miss_BW: 43
L2_PA_ratio set to: 146
TH_L2PA: 106, l2miss_BW: 44, llc_miss_BW: 44
L2_PA_ratio set to: 140
TH_L2PA: 106, l2miss_BW: 45, llc_miss_BW: 45
L2_PA_ratio set to: 135
TH_L2PA: 106, l2miss_BW: 43, llc_miss_BW: 43
L2_PA_ratio set to: 146
TH_L2PA: 106, l2miss_BW: 44, llc_miss_BW: 44
L2_PA_ratio set to: 140
TH_L2PA: 106, l2miss_BW: 44, llc_miss_BW: 44
L2_PA_ratio set to: 140
TH_L2PA: 106, l2miss_BW: 44, llc_miss_BW: 44
L2_PA_ratio set to: 140
TH_L2PA: 106, l2miss_BW: 43, llc_miss_BW: 43
L2_PA_ratio set to: 146
TH_L2PA: 106, l2miss_BW: 43, llc_miss_BW: 43
L2_PA_ratio set to: 146
TH_L2PA: 106, l2miss_BW: 44, llc_miss_BW: 44
L2_PA_ratio set to: 140
TH_L2PA: 106, l2miss_BW: 44, llc_miss_BW: 44
L2_PA_ratio set to: 140
TH_L2PA: 106, l2miss_BW: 44, llc_miss_BW: 44
L2_PA_ratio set to: 140
TH_L2PA: 106, l2miss_BW: 42, llc_miss_BW: 42
L2_PA_ratio set to: 152
TH_L2PA: 106, l2miss_BW: 43, llc_miss_BW: 43
L2_PA_ratio set to: 146
TH_L2PA: 106, l2miss_BW: 45, llc_miss_BW: 45
L2_PA_ratio set to: 135
TH_L2PA: 106, l2miss_BW: 44, llc_miss_BW: 44
L2_PA_ratio set to: 140
TH_L2PA: 106, l2miss_BW: 44, llc_miss_BW: 44
L2_PA_ratio set to: 140
TH_L2PA: 106, l2miss_BW: 43, llc_miss_BW: 43
L2_PA_ratio set to: 146
TH_L2PA: 106, l2miss_BW: 42, llc_miss_BW: 42
L2_PA_ratio set to: 152
TH_L2PA: 106, l2miss_BW: 42, llc_miss_BW: 42
L2_PA_ratio set to: 152
TH_L2PA: 106, l2miss_BW: 44, llc_miss_BW: 44
L2_PA_ratio set to: 140
TH_L2PA: 106, l2miss_BW: 44, llc_miss_BW: 44
L2_PA_ratio set to: 140
TH_L2PA: 106, l2miss_BW: 43, llc_miss_BW: 43
L2_PA_ratio set to: 146
TH_L2PA: 106, l2miss_BW: 44, llc_miss_BW: 44
L2_PA_ratio set to: 140
TH_L2PA: 106, l2miss_BW: 44, llc_miss_BW: 44
L2_PA_ratio set to: 140
TH_L2PA: 106, l2miss_BW: 44, llc_miss_BW: 44
L2_PA_ratio set to: 140
TH_L2PA: 106, l2miss_BW: 43, llc_miss_BW: 43
L2_PA_ratio set to: 146
TH_L2PA: 106, l2miss_BW: 42, llc_miss_BW: 42
L2_PA_ratio set to: 152
TH_L2PA: 106, l2miss_BW: 43, llc_miss_BW: 43
L2_PA_ratio set to: 146
TH_L2PA: 106, l2miss_BW: 43, llc_miss_BW: 43
L2_PA_ratio set to: 146
TH_L2PA: 106, l2miss_BW: 44, llc_miss_BW: 44
L2_PA_ratio set to: 140
TH_L2PA: 106, l2miss_BW: 43, llc_miss_BW: 43
L2_PA_ratio set to: 146
TH_L2PA: 106, l2miss_BW: 43, llc_miss_BW: 43
L2_PA_ratio set to: 146
TH_L2PA: 106, l2miss_BW: 43, llc_miss_BW: 43
L2_PA_ratio set to: 146
TH_L2PA: 106, l2miss_BW: 43, llc_miss_BW: 43
L2_PA_ratio set to: 146
TH_L2PA: 106, l2miss_BW: 42, llc_miss_BW: 42
L2_PA_ratio set to: 152
TH_L2PA: 106, l2miss_BW: 43, llc_miss_BW: 43
L2_PA_ratio set to: 146
TH_L2PA: 106, l2miss_BW: 43, llc_miss_BW: 43
L2_PA_ratio set to: 146
TH_L2PA: 106, l2miss_BW: 44, llc_miss_BW: 44
L2_PA_ratio set to: 140
TH_L2PA: 106, l2miss_BW: 44, llc_miss_BW: 44
L2_PA_ratio set to: 140
TH_L2PA: 106, l2miss_BW: 42, llc_miss_BW: 42
L2_PA_ratio set to: 152
TH_L2PA: 106, l2miss_BW: 45, llc_miss_BW: 45
L2_PA_ratio set to: 135
TH_L2PA: 106, l2miss_BW: 45, llc_miss_BW: 45
L2_PA_ratio set to: 135
TH_L2PA: 106, l2miss_BW: 44, llc_miss_BW: 44
L2_PA_ratio set to: 140
TH_L2PA: 106, l2miss_BW: 43, llc_miss_BW: 43
L2_PA_ratio set to: 146
TH_L2PA: 106, l2miss_BW: 45, llc_miss_BW: 45
L2_PA_ratio set to: 135
TH_L2PA: 106, l2miss_BW: 43, llc_miss_BW: 43
L2_PA_ratio set to: 146
TH_L2PA: 106, l2miss_BW: 43, llc_miss_BW: 43
L2_PA_ratio set to: 146
TH_L2PA: 106, l2miss_BW: 43, llc_miss_BW: 43
L2_PA_ratio set to: 146
TH_L2PA: 106, l2miss_BW: 44, llc_miss_BW: 44
L2_PA_ratio set to: 140
TH_L2PA: 106, l2miss_BW: 44, llc_miss_BW: 44
L2_PA_ratio set to: 140
TH_L2PA: 106, l2miss_BW: 43, llc_miss_BW: 43
L2_PA_ratio set to: 146
TH_L2PA: 106, l2miss_BW: 43, llc_miss_BW: 43
L2_PA_ratio set to: 146
TH_L2PA: 106, l2miss_BW: 44, llc_miss_BW: 44
L2_PA_ratio set to: 140
TH_L2PA: 106, l2miss_BW: 43, llc_miss_BW: 43
L2_PA_ratio set to: 146
TH_L2PA: 106, l2miss_BW: 44, llc_miss_BW: 44
L2_PA_ratio set to: 140
TH_L2PA: 106, l2miss_BW: 44, llc_miss_BW: 44
L2_PA_ratio set to: 140
TH_L2PA: 106, l2miss_BW: 43, llc_miss_BW: 43
L2_PA_ratio set to: 146
TH_L2PA: 106, l2miss_BW: 43, llc_miss_BW: 43
L2_PA_ratio set to: 146
TH_L2PA: 106, l2miss_BW: 43, llc_miss_BW: 43
L2_PA_ratio set to: 146
TH_L2PA: 106, l2miss_BW: 44, llc_miss_BW: 44
L2_PA_ratio set to: 140
TH_L2PA: 106, l2miss_BW: 44, llc_miss_BW: 44
L2_PA_ratio set to: 140
TH_L2PA: 106, l2miss_BW: 43, llc_miss_BW: 43
L2_PA_ratio set to: 146
TH_L2PA: 106, l2miss_BW: 44, llc_miss_BW: 44
L2_PA_ratio set to: 140
TH_L2PA: 106, l2miss_BW: 45, llc_miss_BW: 45
L2_PA_ratio set to: 135
TH_L2PA: 106, l2miss_BW: 44, llc_miss_BW: 44
L2_PA_ratio set to: 140
TH_L2PA: 106, l2miss_BW: 43, llc_miss_BW: 43
L2_PA_ratio set to: 146
TH_L2PA: 106, l2miss_BW: 44, llc_miss_BW: 44
L2_PA_ratio set to: 140
TH_L2PA: 106, l2miss_BW: 43, llc_miss_BW: 43
L2_PA_ratio set to: 146
TH_L2PA: 106, l2miss_BW: 43, llc_miss_BW: 43
L2_PA_ratio set to: 146
TH_L2PA: 106, l2miss_BW: 44, llc_miss_BW: 44
L2_PA_ratio set to: 140
TH_L2PA: 106, l2miss_BW: 44, llc_miss_BW: 44
L2_PA_ratio set to: 140
TH_L2PA: 106, l2miss_BW: 44, llc_miss_BW: 44
L2_PA_ratio set to: 140
TH_L2PA: 106, l2miss_BW: 42, llc_miss_BW: 42
L2_PA_ratio set to: 152
TH_L2PA: 106, l2miss_BW: 44, llc_miss_BW: 44
L2_PA_ratio set to: 140
TH_L2PA: 106, l2miss_BW: 44, llc_miss_BW: 44
L2_PA_ratio set to: 140
TH_L2PA: 106, l2miss_BW: 44, llc_miss_BW: 44
L2_PA_ratio set to: 140
TH_L2PA: 106, l2miss_BW: 44, llc_miss_BW: 44
L2_PA_ratio set to: 140
TH_L2PA: 106, l2miss_BW: 44, llc_miss_BW: 44
L2_PA_ratio set to: 140
TH_L2PA: 106, l2miss_BW: 43, llc_miss_BW: 43
L2_PA_ratio set to: 146
TH_L2PA: 106, l2miss_BW: 44, llc_miss_BW: 44
L2_PA_ratio set to: 140
TH_L2PA: 106, l2miss_BW: 44, llc_miss_BW: 44
L2_PA_ratio set to: 140
TH_L2PA: 106, l2miss_BW: 43, llc_miss_BW: 43
L2_PA_ratio set to: 146
TH_L2PA: 106, l2miss_BW: 43, llc_miss_BW: 43
L2_PA_ratio set to: 146
TH_L2PA: 106, l2miss_BW: 44, llc_miss_BW: 44
L2_PA_ratio set to: 140
TH_L2PA: 106, l2miss_BW: 43, llc_miss_BW: 43
L2_PA_ratio set to: 146
TH_L2PA: 106, l2miss_BW: 44, llc_miss_BW: 44
L2_PA_ratio set to: 140
TH_L2PA: 106, l2miss_BW: 44, llc_miss_BW: 44
L2_PA_ratio set to: 140
TH_L2PA: 106, l2miss_BW: 43, llc_miss_BW: 43
L2_PA_ratio set to: 146
TH_L2PA: 106, l2miss_BW: 43, llc_miss_BW: 43
L2_PA_ratio set to: 146
TH_L2PA: 106, l2miss_BW: 44, llc_miss_BW: 44
L2_PA_ratio set to: 140
TH_L2PA: 106, l2miss_BW: 43, llc_miss_BW: 43
L2_PA_ratio set to: 146
TH_L2PA: 106, l2miss_BW: 44, llc_miss_BW: 44
L2_PA_ratio set to: 140
TH_L2PA: 106, l2miss_BW: 43, llc_miss_BW: 43
L2_PA_ratio set to: 146
TH_L2PA: 106, l2miss_BW: 43, llc_miss_BW: 43
L2_PA_ratio set to: 146
TH_L2PA: 106, l2miss_BW: 43, llc_miss_BW: 43
L2_PA_ratio set to: 146
TH_L2PA: 106, l2miss_BW: 45, llc_miss_BW: 45
L2_PA_ratio set to: 135
TH_L2PA: 106, l2miss_BW: 43, llc_miss_BW: 43
L2_PA_ratio set to: 146
TH_L2PA: 106, l2miss_BW: 43, llc_miss_BW: 43
L2_PA_ratio set to: 146
TH_L2PA: 106, l2miss_BW: 44, llc_miss_BW: 44
L2_PA_ratio set to: 140
TH_L2PA: 106, l2miss_BW: 44, llc_miss_BW: 44
L2_PA_ratio set to: 140
TH_L2PA: 106, l2miss_BW: 43, llc_miss_BW: 43
L2_PA_ratio set to: 146
TH_L2PA: 106, l2miss_BW: 43, llc_miss_BW: 43
L2_PA_ratio set to: 146
TH_L2PA: 106, l2miss_BW: 43, llc_miss_BW: 43
L2_PA_ratio set to: 146
TH_L2PA: 106, l2miss_BW: 43, llc_miss_BW: 43
L2_PA_ratio set to: 146
TH_L2PA: 106, l2miss_BW: 43, llc_miss_BW: 43
L2_PA_ratio set to: 146
TH_L2PA: 106, l2miss_BW: 43, llc_miss_BW: 43
L2_PA_ratio set to: 146
TH_L2PA: 106, l2miss_BW: 44, llc_miss_BW: 44
L2_PA_ratio set to: 140
TH_L2PA: 106, l2miss_BW: 43, llc_miss_BW: 43
L2_PA_ratio set to: 146
TH_L2PA: 106, l2miss_BW: 44, llc_miss_BW: 44
L2_PA_ratio set to: 140
TH_L2PA: 106, l2miss_BW: 42, llc_miss_BW: 42
L2_PA_ratio set to: 152
TH_L2PA: 106, l2miss_BW: 42, llc_miss_BW: 42
L2_PA_ratio set to: 152
TH_L2PA: 106, l2miss_BW: 44, llc_miss_BW: 44
L2_PA_ratio set to: 140
TH_L2PA: 106, l2miss_BW: 44, llc_miss_BW: 44
L2_PA_ratio set to: 140
TH_L2PA: 106, l2miss_BW: 44, llc_miss_BW: 44
L2_PA_ratio set to: 140
TH_L2PA: 106, l2miss_BW: 44, llc_miss_BW: 44
L2_PA_ratio set to: 140
TH_L2PA: 106, l2miss_BW: 43, llc_miss_BW: 43
L2_PA_ratio set to: 146
TH_L2PA: 106, l2miss_BW: 43, llc_miss_BW: 43
L2_PA_ratio set to: 146
TH_L2PA: 106, l2miss_BW: 44, llc_miss_BW: 44
L2_PA_ratio set to: 140
TH_L2PA: 106, l2miss_BW: 43, llc_miss_BW: 43
L2_PA_ratio set to: 146
TH_L2PA: 106, l2miss_BW: 45, llc_miss_BW: 45
L2_PA_ratio set to: 135
TH_L2PA: 106, l2miss_BW: 44, llc_miss_BW: 44
L2_PA_ratio set to: 140
TH_L2PA: 106, l2miss_BW: 44, llc_miss_BW: 44
L2_PA_ratio set to: 140
TH_L2PA: 106, l2miss_BW: 44, llc_miss_BW: 44
L2_PA_ratio set to: 140
TH_L2PA: 106, l2miss_BW: 44, llc_miss_BW: 44
L2_PA_ratio set to: 140
TH_L2PA: 106, l2miss_BW: 43, llc_miss_BW: 43
L2_PA_ratio set to: 146
TH_L2PA: 106, l2miss_BW: 43, llc_miss_BW: 43
L2_PA_ratio set to: 146
TH_L2PA: 106, l2miss_BW: 44, llc_miss_BW: 44
L2_PA_ratio set to: 140
TH_L2PA: 106, l2miss_BW: 45, llc_miss_BW: 45
L2_PA_ratio set to: 135
TH_L2PA: 106, l2miss_BW: 43, llc_miss_BW: 43
L2_PA_ratio set to: 146
TH_L2PA: 106, l2miss_BW: 43, llc_miss_BW: 43
L2_PA_ratio set to: 146
TH_L2PA: 106, l2miss_BW: 45, llc_miss_BW: 45
L2_PA_ratio set to: 135
TH_L2PA: 106, l2miss_BW: 44, llc_miss_BW: 44
L2_PA_ratio set to: 140
TH_L2PA: 106, l2miss_BW: 44, llc_miss_BW: 44
L2_PA_ratio set to: 140
TH_L2PA: 106, l2miss_BW: 44, llc_miss_BW: 44
L2_PA_ratio set to: 140
TH_L2PA: 106, l2miss_BW: 43, llc_miss_BW: 43
L2_PA_ratio set to: 146
TH_L2PA: 106, l2miss_BW: 43, llc_miss_BW: 43
L2_PA_ratio set to: 146
TH_L2PA: 106, l2miss_BW: 43, llc_miss_BW: 43
L2_PA_ratio set to: 146
TH_L2PA: 106, l2miss_BW: 43, llc_miss_BW: 43
L2_PA_ratio set to: 146
TH_L2PA: 106, l2miss_BW: 43, llc_miss_BW: 43
L2_PA_ratio set to: 146
TH_L2PA: 106, l2miss_BW: 44, llc_miss_BW: 44
L2_PA_ratio set to: 140
TH_L2PA: 106, l2miss_BW: 43, llc_miss_BW: 43
L2_PA_ratio set to: 146
TH_L2PA: 106, l2miss_BW: 43, llc_miss_BW: 43
L2_PA_ratio set to: 146
TH_L2PA: 106, l2miss_BW: 45, llc_miss_BW: 45
L2_PA_ratio set to: 135
TH_L2PA: 106, l2miss_BW: 44, llc_miss_BW: 44
L2_PA_ratio set to: 140
TH_L2PA: 106, l2miss_BW: 42, llc_miss_BW: 42
L2_PA_ratio set to: 152
TH_L2PA: 106, l2miss_BW: 44, llc_miss_BW: 44
L2_PA_ratio set to: 140
TH_L2PA: 106, l2miss_BW: 44, llc_miss_BW: 44
L2_PA_ratio set to: 140
TH_L2PA: 106, l2miss_BW: 45, llc_miss_BW: 45
L2_PA_ratio set to: 135
TH_L2PA: 106, l2miss_BW: 43, llc_miss_BW: 43
L2_PA_ratio set to: 146
TH_L2PA: 106, l2miss_BW: 42, llc_miss_BW: 42
L2_PA_ratio set to: 152
TH_L2PA: 106, l2miss_BW: 42, llc_miss_BW: 42
L2_PA_ratio set to: 152
TH_L2PA: 106, l2miss_BW: 42, llc_miss_BW: 42
L2_PA_ratio set to: 152
TH_L2PA: 106, l2miss_BW: 45, llc_miss_BW: 45
L2_PA_ratio set to: 135
TH_L2PA: 106, l2miss_BW: 44, llc_miss_BW: 44
L2_PA_ratio set to: 140
TH_L2PA: 106, l2miss_BW: 44, llc_miss_BW: 44
L2_PA_ratio set to: 140
TH_L2PA: 106, l2miss_BW: 43, llc_miss_BW: 43
L2_PA_ratio set to: 146
TH_L2PA: 106, l2miss_BW: 42, llc_miss_BW: 42
L2_PA_ratio set to: 152
TH_L2PA: 106, l2miss_BW: 43, llc_miss_BW: 43
L2_PA_ratio set to: 146
TH_L2PA: 106, l2miss_BW: 44, llc_miss_BW: 44
L2_PA_ratio set to: 140
TH_L2PA: 106, l2miss_BW: 43, llc_miss_BW: 43
L2_PA_ratio set to: 146
TH_L2PA: 106, l2miss_BW: 42, llc_miss_BW: 42
L2_PA_ratio set to: 152
TH_L2PA: 106, l2miss_BW: 44, llc_miss_BW: 44
L2_PA_ratio set to: 140
TH_L2PA: 106, l2miss_BW: 44, llc_miss_BW: 44
L2_PA_ratio set to: 140
TH_L2PA: 106, l2miss_BW: 43, llc_miss_BW: 43
L2_PA_ratio set to: 146
TH_L2PA: 106, l2miss_BW: 44, llc_miss_BW: 44
L2_PA_ratio set to: 140
TH_L2PA: 106, l2miss_BW: 45, llc_miss_BW: 45
L2_PA_ratio set to: 135
TH_L2PA: 106, l2miss_BW: 42, llc_miss_BW: 42
L2_PA_ratio set to: 152
TH_L2PA: 106, l2miss_BW: 44, llc_miss_BW: 44
L2_PA_ratio set to: 140
TH_L2PA: 106, l2miss_BW: 44, llc_miss_BW: 44
L2_PA_ratio set to: 140
TH_L2PA: 106, l2miss_BW: 43, llc_miss_BW: 43
L2_PA_ratio set to: 146
TH_L2PA: 106, l2miss_BW: 43, llc_miss_BW: 43
L2_PA_ratio set to: 146
TH_L2PA: 106, l2miss_BW: 44, llc_miss_BW: 44
L2_PA_ratio set to: 140
TH_L2PA: 106, l2miss_BW: 44, llc_miss_BW: 44
L2_PA_ratio set to: 140
TH_L2PA: 106, l2miss_BW: 44, llc_miss_BW: 44
L2_PA_ratio set to: 140
TH_L2PA: 106, l2miss_BW: 43, llc_miss_BW: 43
L2_PA_ratio set to: 146
TH_L2PA: 106, l2miss_BW: 44, llc_miss_BW: 44
L2_PA_ratio set to: 140
TH_L2PA: 106, l2miss_BW: 44, llc_miss_BW: 44
L2_PA_ratio set to: 140
TH_L2PA: 106, l2miss_BW: 43, llc_miss_BW: 43
L2_PA_ratio set to: 146
TH_L2PA: 106, l2miss_BW: 42, llc_miss_BW: 42
L2_PA_ratio set to: 152
TH_L2PA: 106, l2miss_BW: 43, llc_miss_BW: 43
L2_PA_ratio set to: 146
TH_L2PA: 106, l2miss_BW: 43, llc_miss_BW: 43
L2_PA_ratio set to: 146
TH_L2PA: 106, l2miss_BW: 43, llc_miss_BW: 43
L2_PA_ratio set to: 146
TH_L2PA: 106, l2miss_BW: 43, llc_miss_BW: 43
L2_PA_ratio set to: 146
TH_L2PA: 106, l2miss_BW: 44, llc_miss_BW: 44
L2_PA_ratio set to: 140
TH_L2PA: 106, l2miss_BW: 43, llc_miss_BW: 43
L2_PA_ratio set to: 146
TH_L2PA: 106, l2miss_BW: 44, llc_miss_BW: 44
L2_PA_ratio set to: 140
TH_L2PA: 106, l2miss_BW: 45, llc_miss_BW: 45
L2_PA_ratio set to: 135
TH_L2PA: 106, l2miss_BW: 44, llc_miss_BW: 44
L2_PA_ratio set to: 140
TH_L2PA: 106, l2miss_BW: 43, llc_miss_BW: 43
L2_PA_ratio set to: 146
TH_L2PA: 106, l2miss_BW: 42, llc_miss_BW: 42
L2_PA_ratio set to: 152
TH_L2PA: 106, l2miss_BW: 44, llc_miss_BW: 44
L2_PA_ratio set to: 140
TH_L2PA: 106, l2miss_BW: 43, llc_miss_BW: 43
L2_PA_ratio set to: 146
TH_L2PA: 106, l2miss_BW: 42, llc_miss_BW: 42
L2_PA_ratio set to: 152
TH_L2PA: 106, l2miss_BW: 43, llc_miss_BW: 43
L2_PA_ratio set to: 146
TH_L2PA: 106, l2miss_BW: 45, llc_miss_BW: 45
L2_PA_ratio set to: 135
TH_L2PA: 106, l2miss_BW: 44, llc_miss_BW: 44
L2_PA_ratio set to: 140
TH_L2PA: 106, l2miss_BW: 44, llc_miss_BW: 44
L2_PA_ratio set to: 140
TH_L2PA: 106, l2miss_BW: 43, llc_miss_BW: 43
L2_PA_ratio set to: 146
TH_L2PA: 106, l2miss_BW: 44, llc_miss_BW: 44
L2_PA_ratio set to: 140
TH_L2PA: 106, l2miss_BW: 44, llc_miss_BW: 44
L2_PA_ratio set to: 140
TH_L2PA: 106, l2miss_BW: 45, llc_miss_BW: 45
L2_PA_ratio set to: 135
TH_L2PA: 106, l2miss_BW: 44, llc_miss_BW: 44
L2_PA_ratio set to: 140
TH_L2PA: 106, l2miss_BW: 43, llc_miss_BW: 43
L2_PA_ratio set to: 146
TH_L2PA: 106, l2miss_BW: 43, llc_miss_BW: 43
L2_PA_ratio set to: 146
TH_L2PA: 106, l2miss_BW: 43, llc_miss_BW: 43
L2_PA_ratio set to: 146
TH_L2PA: 106, l2miss_BW: 43, llc_miss_BW: 43
L2_PA_ratio set to: 146
TH_L2PA: 106, l2miss_BW: 43, llc_miss_BW: 43
L2_PA_ratio set to: 146
TH_L2PA: 106, l2miss_BW: 44, llc_miss_BW: 44
L2_PA_ratio set to: 140
TH_L2PA: 106, l2miss_BW: 43, llc_miss_BW: 43
L2_PA_ratio set to: 146
TH_L2PA: 106, l2miss_BW: 44, llc_miss_BW: 44
L2_PA_ratio set to: 140
TH_L2PA: 106, l2miss_BW: 43, llc_miss_BW: 43
L2_PA_ratio set to: 146
TH_L2PA: 106, l2miss_BW: 42, llc_miss_BW: 42
L2_PA_ratio set to: 152
TH_L2PA: 106, l2miss_BW: 43, llc_miss_BW: 43
L2_PA_ratio set to: 146
TH_L2PA: 106, l2miss_BW: 43, llc_miss_BW: 43
L2_PA_ratio set to: 146
TH_L2PA: 106, l2miss_BW: 43, llc_miss_BW: 43
L2_PA_ratio set to: 146
TH_L2PA: 106, l2miss_BW: 45, llc_miss_BW: 45
L2_PA_ratio set to: 135
TH_L2PA: 106, l2miss_BW: 43, llc_miss_BW: 43
L2_PA_ratio set to: 146
TH_L2PA: 106, l2miss_BW: 43, llc_miss_BW: 43
L2_PA_ratio set to: 146
TH_L2PA: 106, l2miss_BW: 44, llc_miss_BW: 44
L2_PA_ratio set to: 140
TH_L2PA: 106, l2miss_BW: 43, llc_miss_BW: 43
L2_PA_ratio set to: 146
TH_L2PA: 106, l2miss_BW: 45, llc_miss_BW: 45
L2_PA_ratio set to: 135
TH_L2PA: 106, l2miss_BW: 44, llc_miss_BW: 44
L2_PA_ratio set to: 140
TH_L2PA: 106, l2miss_BW: 43, llc_miss_BW: 43
L2_PA_ratio set to: 146
TH_L2PA: 106, l2miss_BW: 43, llc_miss_BW: 43
L2_PA_ratio set to: 146
TH_L2PA: 106, l2miss_BW: 43, llc_miss_BW: 43
L2_PA_ratio set to: 146
TH_L2PA: 106, l2miss_BW: 44, llc_miss_BW: 44
L2_PA_ratio set to: 140
TH_L2PA: 106, l2miss_BW: 42, llc_miss_BW: 42
L2_PA_ratio set to: 152
TH_L2PA: 106, l2miss_BW: 43, llc_miss_BW: 43
L2_PA_ratio set to: 146
TH_L2PA: 106, l2miss_BW: 45, llc_miss_BW: 45
L2_PA_ratio set to: 135
TH_L2PA: 106, l2miss_BW: 45, llc_miss_BW: 45
L2_PA_ratio set to: 135
TH_L2PA: 106, l2miss_BW: 43, llc_miss_BW: 43
L2_PA_ratio set to: 146
TH_L2PA: 106, l2miss_BW: 43, llc_miss_BW: 43
L2_PA_ratio set to: 146
TH_L2PA: 106, l2miss_BW: 43, llc_miss_BW: 43
L2_PA_ratio set to: 146
TH_L2PA: 106, l2miss_BW: 43, llc_miss_BW: 43
L2_PA_ratio set to: 146
TH_L2PA: 106, l2miss_BW: 45, llc_miss_BW: 45
L2_PA_ratio set to: 135
Heartbeat CPU 1 instructions: 30000005 cycles: 79180050 heartbeat IPC: 0.367297 cumulative IPC: 0.36758 (Simulation time: 1 hr 4 min 38 sec) 
PAM Allow Rate: 135%
TH_L2PA: 106, l2miss_BW: 42, llc_miss_BW: 42
L2_PA_ratio set to: 152
TH_L2PA: 106, l2miss_BW: 42, llc_miss_BW: 42
L2_PA_ratio set to: 152
TH_L2PA: 106, l2miss_BW: 44, llc_miss_BW: 44
L2_PA_ratio set to: 140
TH_L2PA: 106, l2miss_BW: 42, llc_miss_BW: 42
L2_PA_ratio set to: 152
TH_L2PA: 106, l2miss_BW: 43, llc_miss_BW: 43
L2_PA_ratio set to: 146
TH_L2PA: 106, l2miss_BW: 44, llc_miss_BW: 44
L2_PA_ratio set to: 140
TH_L2PA: 106, l2miss_BW: 44, llc_miss_BW: 44
L2_PA_ratio set to: 140
TH_L2PA: 106, l2miss_BW: 44, llc_miss_BW: 44
L2_PA_ratio set to: 140
TH_L2PA: 106, l2miss_BW: 44, llc_miss_BW: 44
L2_PA_ratio set to: 140
TH_L2PA: 106, l2miss_BW: 44, llc_miss_BW: 44
L2_PA_ratio set to: 140
TH_L2PA: 106, l2miss_BW: 44, llc_miss_BW: 44
L2_PA_ratio set to: 140
TH_L2PA: 106, l2miss_BW: 43, llc_miss_BW: 43
L2_PA_ratio set to: 146
TH_L2PA: 106, l2miss_BW: 45, llc_miss_BW: 45
L2_PA_ratio set to: 135
Heartbeat CPU 0 instructions: 30000005 cycles: 80436103 heartbeat IPC: 0.361906 cumulative IPC: 0.361819 (Simulation time: 1 hr 5 min 39 sec) 
PAM Allow Rate: 135%
Heartbeat CPU 2 instructions: 30000005 cycles: 80439786 heartbeat IPC: 0.361521 cumulative IPC: 0.361803 (Simulation time: 1 hr 5 min 39 sec) 
PAM Allow Rate: 135%
Heartbeat CPU 5 instructions: 30000005 cycles: 80457113 heartbeat IPC: 0.362388 cumulative IPC: 0.361724 (Simulation time: 1 hr 5 min 40 sec) 
PAM Allow Rate: 135%
TH_L2PA: 106, l2miss_BW: 44, llc_miss_BW: 44
L2_PA_ratio set to: 140
TH_L2PA: 106, l2miss_BW: 43, llc_miss_BW: 43
L2_PA_ratio set to: 146
TH_L2PA: 106, l2miss_BW: 44, llc_miss_BW: 44
L2_PA_ratio set to: 140
TH_L2PA: 106, l2miss_BW: 43, llc_miss_BW: 43
L2_PA_ratio set to: 146
TH_L2PA: 106, l2miss_BW: 43, llc_miss_BW: 43
L2_PA_ratio set to: 146
TH_L2PA: 106, l2miss_BW: 43, llc_miss_BW: 43
L2_PA_ratio set to: 146
TH_L2PA: 106, l2miss_BW: 44, llc_miss_BW: 44
L2_PA_ratio set to: 140
TH_L2PA: 106, l2miss_BW: 42, llc_miss_BW: 42
L2_PA_ratio set to: 152
TH_L2PA: 106, l2miss_BW: 43, llc_miss_BW: 43
L2_PA_ratio set to: 146
TH_L2PA: 106, l2miss_BW: 42, llc_miss_BW: 42
L2_PA_ratio set to: 152
TH_L2PA: 106, l2miss_BW: 44, llc_miss_BW: 44
L2_PA_ratio set to: 140
Heartbeat CPU 9 instructions: 30000005 cycles: 81537930 heartbeat IPC: 0.358072 cumulative IPC: 0.356913 (Simulation time: 1 hr 6 min 33 sec) 
PAM Allow Rate: 140%
Heartbeat CPU 3 instructions: 30000005 cycles: 81596687 heartbeat IPC: 0.356957 cumulative IPC: 0.356656 (Simulation time: 1 hr 6 min 36 sec) 
PAM Allow Rate: 140%
TH_L2PA: 106, l2miss_BW: 43, llc_miss_BW: 43
L2_PA_ratio set to: 146
Heartbeat CPU 4 instructions: 30000005 cycles: 81687692 heartbeat IPC: 0.35697 cumulative IPC: 0.356256 (Simulation time: 1 hr 6 min 40 sec) 
PAM Allow Rate: 146%
Heartbeat CPU 6 instructions: 30000005 cycles: 81689921 heartbeat IPC: 0.357297 cumulative IPC: 0.356247 (Simulation time: 1 hr 6 min 40 sec) 
PAM Allow Rate: 146%
TH_L2PA: 106, l2miss_BW: 43, llc_miss_BW: 43
L2_PA_ratio set to: 146
TH_L2PA: 106, l2miss_BW: 43, llc_miss_BW: 43
L2_PA_ratio set to: 146
TH_L2PA: 106, l2miss_BW: 44, llc_miss_BW: 44
L2_PA_ratio set to: 140
TH_L2PA: 106, l2miss_BW: 44, llc_miss_BW: 44
L2_PA_ratio set to: 140
TH_L2PA: 106, l2miss_BW: 43, llc_miss_BW: 43
L2_PA_ratio set to: 146
TH_L2PA: 106, l2miss_BW: 43, llc_miss_BW: 43
L2_PA_ratio set to: 146
TH_L2PA: 106, l2miss_BW: 44, llc_miss_BW: 44
L2_PA_ratio set to: 140
TH_L2PA: 106, l2miss_BW: 43, llc_miss_BW: 43
L2_PA_ratio set to: 146
TH_L2PA: 106, l2miss_BW: 43, llc_miss_BW: 43
L2_PA_ratio set to: 146
TH_L2PA: 106, l2miss_BW: 45, llc_miss_BW: 45
L2_PA_ratio set to: 135
Heartbeat CPU 10 instructions: 30000005 cycles: 82623737 heartbeat IPC: 0.352372 cumulative IPC: 0.352207 (Simulation time: 1 hr 7 min 26 sec) 
PAM Allow Rate: 135%
Heartbeat CPU 7 instructions: 30000005 cycles: 82625970 heartbeat IPC: 0.352248 cumulative IPC: 0.352197 (Simulation time: 1 hr 7 min 26 sec) 
PAM Allow Rate: 135%
Heartbeat CPU 8 instructions: 30000005 cycles: 82663565 heartbeat IPC: 0.352599 cumulative IPC: 0.352036 (Simulation time: 1 hr 7 min 28 sec) 
PAM Allow Rate: 135%
TH_L2PA: 106, l2miss_BW: 43, llc_miss_BW: 43
L2_PA_ratio set to: 146
TH_L2PA: 106, l2miss_BW: 43, llc_miss_BW: 43
L2_PA_ratio set to: 146
TH_L2PA: 106, l2miss_BW: 42, llc_miss_BW: 42
L2_PA_ratio set to: 152
TH_L2PA: 106, l2miss_BW: 44, llc_miss_BW: 44
L2_PA_ratio set to: 140
TH_L2PA: 106, l2miss_BW: 44, llc_miss_BW: 44
L2_PA_ratio set to: 140
Heartbeat CPU 11 instructions: 30000005 cycles: 83165664 heartbeat IPC: 0.349918 cumulative IPC: 0.349904 (Simulation time: 1 hr 7 min 52 sec) 
PAM Allow Rate: 140%
TH_L2PA: 106, l2miss_BW: 44, llc_miss_BW: 44
L2_PA_ratio set to: 140
TH_L2PA: 106, l2miss_BW: 45, llc_miss_BW: 45
L2_PA_ratio set to: 135
TH_L2PA: 106, l2miss_BW: 44, llc_miss_BW: 44
L2_PA_ratio set to: 140
TH_L2PA: 106, l2miss_BW: 44, llc_miss_BW: 44
L2_PA_ratio set to: 140
TH_L2PA: 106, l2miss_BW: 43, llc_miss_BW: 43
L2_PA_ratio set to: 146
TH_L2PA: 106, l2miss_BW: 42, llc_miss_BW: 42
L2_PA_ratio set to: 152
TH_L2PA: 106, l2miss_BW: 44, llc_miss_BW: 44
L2_PA_ratio set to: 140
TH_L2PA: 106, l2miss_BW: 43, llc_miss_BW: 43
L2_PA_ratio set to: 146
TH_L2PA: 106, l2miss_BW: 43, llc_miss_BW: 43
L2_PA_ratio set to: 146
TH_L2PA: 106, l2miss_BW: 43, llc_miss_BW: 43
L2_PA_ratio set to: 146
TH_L2PA: 106, l2miss_BW: 42, llc_miss_BW: 42
L2_PA_ratio set to: 152
TH_L2PA: 106, l2miss_BW: 42, llc_miss_BW: 42
L2_PA_ratio set to: 152
TH_L2PA: 106, l2miss_BW: 42, llc_miss_BW: 42
L2_PA_ratio set to: 152
TH_L2PA: 106, l2miss_BW: 43, llc_miss_BW: 43
L2_PA_ratio set to: 146
TH_L2PA: 106, l2miss_BW: 44, llc_miss_BW: 44
L2_PA_ratio set to: 140
TH_L2PA: 106, l2miss_BW: 43, llc_miss_BW: 43
L2_PA_ratio set to: 146
TH_L2PA: 106, l2miss_BW: 44, llc_miss_BW: 44
L2_PA_ratio set to: 140
TH_L2PA: 106, l2miss_BW: 43, llc_miss_BW: 43
L2_PA_ratio set to: 146
TH_L2PA: 106, l2miss_BW: 44, llc_miss_BW: 44
L2_PA_ratio set to: 140
TH_L2PA: 106, l2miss_BW: 43, llc_miss_BW: 43
L2_PA_ratio set to: 146
TH_L2PA: 106, l2miss_BW: 42, llc_miss_BW: 42
L2_PA_ratio set to: 152
TH_L2PA: 106, l2miss_BW: 42, llc_miss_BW: 42
L2_PA_ratio set to: 152
TH_L2PA: 106, l2miss_BW: 44, llc_miss_BW: 44
L2_PA_ratio set to: 140
TH_L2PA: 106, l2miss_BW: 43, llc_miss_BW: 43
L2_PA_ratio set to: 146
TH_L2PA: 106, l2miss_BW: 44, llc_miss_BW: 44
L2_PA_ratio set to: 140
TH_L2PA: 106, l2miss_BW: 44, llc_miss_BW: 44
L2_PA_ratio set to: 140
TH_L2PA: 106, l2miss_BW: 43, llc_miss_BW: 43
L2_PA_ratio set to: 146
TH_L2PA: 106, l2miss_BW: 43, llc_miss_BW: 43
L2_PA_ratio set to: 146
TH_L2PA: 106, l2miss_BW: 44, llc_miss_BW: 44
L2_PA_ratio set to: 140
TH_L2PA: 106, l2miss_BW: 43, llc_miss_BW: 43
L2_PA_ratio set to: 146
TH_L2PA: 106, l2miss_BW: 43, llc_miss_BW: 43
L2_PA_ratio set to: 146
TH_L2PA: 106, l2miss_BW: 43, llc_miss_BW: 43
L2_PA_ratio set to: 146
TH_L2PA: 106, l2miss_BW: 45, llc_miss_BW: 45
L2_PA_ratio set to: 135
TH_L2PA: 106, l2miss_BW: 43, llc_miss_BW: 43
L2_PA_ratio set to: 146
TH_L2PA: 106, l2miss_BW: 42, llc_miss_BW: 42
L2_PA_ratio set to: 152
TH_L2PA: 106, l2miss_BW: 44, llc_miss_BW: 44
L2_PA_ratio set to: 140
TH_L2PA: 106, l2miss_BW: 44, llc_miss_BW: 44
L2_PA_ratio set to: 140
TH_L2PA: 106, l2miss_BW: 44, llc_miss_BW: 44
L2_PA_ratio set to: 140
TH_L2PA: 106, l2miss_BW: 44, llc_miss_BW: 44
L2_PA_ratio set to: 140
TH_L2PA: 106, l2miss_BW: 44, llc_miss_BW: 44
L2_PA_ratio set to: 140
TH_L2PA: 106, l2miss_BW: 43, llc_miss_BW: 43
L2_PA_ratio set to: 146
TH_L2PA: 106, l2miss_BW: 44, llc_miss_BW: 44
L2_PA_ratio set to: 140
TH_L2PA: 106, l2miss_BW: 43, llc_miss_BW: 43
L2_PA_ratio set to: 146
TH_L2PA: 106, l2miss_BW: 44, llc_miss_BW: 44
L2_PA_ratio set to: 140
TH_L2PA: 106, l2miss_BW: 44, llc_miss_BW: 44
L2_PA_ratio set to: 140
TH_L2PA: 106, l2miss_BW: 44, llc_miss_BW: 44
L2_PA_ratio set to: 140
TH_L2PA: 106, l2miss_BW: 43, llc_miss_BW: 43
L2_PA_ratio set to: 146
TH_L2PA: 106, l2miss_BW: 43, llc_miss_BW: 43
L2_PA_ratio set to: 146
TH_L2PA: 106, l2miss_BW: 45, llc_miss_BW: 45
L2_PA_ratio set to: 135
TH_L2PA: 106, l2miss_BW: 43, llc_miss_BW: 43
L2_PA_ratio set to: 146
TH_L2PA: 106, l2miss_BW: 43, llc_miss_BW: 43
L2_PA_ratio set to: 146
TH_L2PA: 106, l2miss_BW: 43, llc_miss_BW: 43
L2_PA_ratio set to: 146
TH_L2PA: 106, l2miss_BW: 43, llc_miss_BW: 43
L2_PA_ratio set to: 146
TH_L2PA: 106, l2miss_BW: 43, llc_miss_BW: 43
L2_PA_ratio set to: 146
TH_L2PA: 106, l2miss_BW: 44, llc_miss_BW: 44
L2_PA_ratio set to: 140
TH_L2PA: 106, l2miss_BW: 44, llc_miss_BW: 44
L2_PA_ratio set to: 140
TH_L2PA: 106, l2miss_BW: 43, llc_miss_BW: 43
L2_PA_ratio set to: 146
TH_L2PA: 106, l2miss_BW: 42, llc_miss_BW: 42
L2_PA_ratio set to: 152
TH_L2PA: 106, l2miss_BW: 43, llc_miss_BW: 43
L2_PA_ratio set to: 146
TH_L2PA: 106, l2miss_BW: 41, llc_miss_BW: 41
L2_PA_ratio set to: 158
TH_L2PA: 106, l2miss_BW: 43, llc_miss_BW: 43
L2_PA_ratio set to: 146
TH_L2PA: 106, l2miss_BW: 44, llc_miss_BW: 44
L2_PA_ratio set to: 140
TH_L2PA: 106, l2miss_BW: 43, llc_miss_BW: 43
L2_PA_ratio set to: 146
TH_L2PA: 106, l2miss_BW: 44, llc_miss_BW: 44
L2_PA_ratio set to: 140
TH_L2PA: 106, l2miss_BW: 43, llc_miss_BW: 43
L2_PA_ratio set to: 146
TH_L2PA: 106, l2miss_BW: 42, llc_miss_BW: 42
L2_PA_ratio set to: 152
TH_L2PA: 106, l2miss_BW: 43, llc_miss_BW: 43
L2_PA_ratio set to: 146
TH_L2PA: 106, l2miss_BW: 43, llc_miss_BW: 43
L2_PA_ratio set to: 146
TH_L2PA: 106, l2miss_BW: 45, llc_miss_BW: 45
L2_PA_ratio set to: 135
TH_L2PA: 106, l2miss_BW: 43, llc_miss_BW: 43
L2_PA_ratio set to: 146
TH_L2PA: 106, l2miss_BW: 44, llc_miss_BW: 44
L2_PA_ratio set to: 140
TH_L2PA: 106, l2miss_BW: 44, llc_miss_BW: 44
L2_PA_ratio set to: 140
TH_L2PA: 106, l2miss_BW: 43, llc_miss_BW: 43
L2_PA_ratio set to: 146
TH_L2PA: 106, l2miss_BW: 44, llc_miss_BW: 44
L2_PA_ratio set to: 140
TH_L2PA: 106, l2miss_BW: 43, llc_miss_BW: 43
L2_PA_ratio set to: 146
TH_L2PA: 106, l2miss_BW: 43, llc_miss_BW: 43
L2_PA_ratio set to: 146
TH_L2PA: 106, l2miss_BW: 43, llc_miss_BW: 43
L2_PA_ratio set to: 146
TH_L2PA: 106, l2miss_BW: 44, llc_miss_BW: 44
L2_PA_ratio set to: 140
TH_L2PA: 106, l2miss_BW: 44, llc_miss_BW: 44
L2_PA_ratio set to: 140
TH_L2PA: 106, l2miss_BW: 45, llc_miss_BW: 45
L2_PA_ratio set to: 135
TH_L2PA: 106, l2miss_BW: 42, llc_miss_BW: 42
L2_PA_ratio set to: 152
TH_L2PA: 106, l2miss_BW: 43, llc_miss_BW: 43
L2_PA_ratio set to: 146
TH_L2PA: 106, l2miss_BW: 44, llc_miss_BW: 44
L2_PA_ratio set to: 140
TH_L2PA: 106, l2miss_BW: 44, llc_miss_BW: 44
L2_PA_ratio set to: 140
TH_L2PA: 106, l2miss_BW: 44, llc_miss_BW: 44
L2_PA_ratio set to: 140
TH_L2PA: 106, l2miss_BW: 44, llc_miss_BW: 44
L2_PA_ratio set to: 140
TH_L2PA: 106, l2miss_BW: 44, llc_miss_BW: 44
L2_PA_ratio set to: 140
TH_L2PA: 106, l2miss_BW: 44, llc_miss_BW: 44
L2_PA_ratio set to: 140
TH_L2PA: 106, l2miss_BW: 43, llc_miss_BW: 43
L2_PA_ratio set to: 146
TH_L2PA: 106, l2miss_BW: 43, llc_miss_BW: 43
L2_PA_ratio set to: 146
TH_L2PA: 106, l2miss_BW: 42, llc_miss_BW: 42
L2_PA_ratio set to: 152
TH_L2PA: 106, l2miss_BW: 43, llc_miss_BW: 43
L2_PA_ratio set to: 146
TH_L2PA: 106, l2miss_BW: 45, llc_miss_BW: 45
L2_PA_ratio set to: 135
TH_L2PA: 106, l2miss_BW: 43, llc_miss_BW: 43
L2_PA_ratio set to: 146
TH_L2PA: 106, l2miss_BW: 44, llc_miss_BW: 44
L2_PA_ratio set to: 140
TH_L2PA: 106, l2miss_BW: 44, llc_miss_BW: 44
L2_PA_ratio set to: 140
TH_L2PA: 106, l2miss_BW: 42, llc_miss_BW: 42
L2_PA_ratio set to: 152
TH_L2PA: 106, l2miss_BW: 43, llc_miss_BW: 43
L2_PA_ratio set to: 146
TH_L2PA: 106, l2miss_BW: 45, llc_miss_BW: 45
L2_PA_ratio set to: 135
TH_L2PA: 106, l2miss_BW: 42, llc_miss_BW: 42
L2_PA_ratio set to: 152
TH_L2PA: 106, l2miss_BW: 42, llc_miss_BW: 42
L2_PA_ratio set to: 152
TH_L2PA: 106, l2miss_BW: 43, llc_miss_BW: 43
L2_PA_ratio set to: 146
TH_L2PA: 106, l2miss_BW: 43, llc_miss_BW: 43
L2_PA_ratio set to: 146
TH_L2PA: 106, l2miss_BW: 44, llc_miss_BW: 44
L2_PA_ratio set to: 140
TH_L2PA: 106, l2miss_BW: 44, llc_miss_BW: 44
L2_PA_ratio set to: 140
TH_L2PA: 106, l2miss_BW: 45, llc_miss_BW: 45
L2_PA_ratio set to: 135
TH_L2PA: 106, l2miss_BW: 45, llc_miss_BW: 45
L2_PA_ratio set to: 135
TH_L2PA: 106, l2miss_BW: 45, llc_miss_BW: 45
L2_PA_ratio set to: 135
TH_L2PA: 106, l2miss_BW: 44, llc_miss_BW: 44
L2_PA_ratio set to: 140
TH_L2PA: 106, l2miss_BW: 42, llc_miss_BW: 42
L2_PA_ratio set to: 152
TH_L2PA: 106, l2miss_BW: 43, llc_miss_BW: 43
L2_PA_ratio set to: 146
TH_L2PA: 106, l2miss_BW: 43, llc_miss_BW: 43
L2_PA_ratio set to: 146
TH_L2PA: 106, l2miss_BW: 44, llc_miss_BW: 44
L2_PA_ratio set to: 140
TH_L2PA: 106, l2miss_BW: 44, llc_miss_BW: 44
L2_PA_ratio set to: 140
TH_L2PA: 106, l2miss_BW: 44, llc_miss_BW: 44
L2_PA_ratio set to: 140
TH_L2PA: 106, l2miss_BW: 42, llc_miss_BW: 42
L2_PA_ratio set to: 152
TH_L2PA: 106, l2miss_BW: 44, llc_miss_BW: 44
L2_PA_ratio set to: 140
TH_L2PA: 106, l2miss_BW: 43, llc_miss_BW: 43
L2_PA_ratio set to: 146
TH_L2PA: 106, l2miss_BW: 42, llc_miss_BW: 42
L2_PA_ratio set to: 152
TH_L2PA: 106, l2miss_BW: 43, llc_miss_BW: 43
L2_PA_ratio set to: 146
TH_L2PA: 106, l2miss_BW: 44, llc_miss_BW: 44
L2_PA_ratio set to: 140
TH_L2PA: 106, l2miss_BW: 43, llc_miss_BW: 43
L2_PA_ratio set to: 146
TH_L2PA: 106, l2miss_BW: 44, llc_miss_BW: 44
L2_PA_ratio set to: 140
TH_L2PA: 106, l2miss_BW: 43, llc_miss_BW: 43
L2_PA_ratio set to: 146
TH_L2PA: 106, l2miss_BW: 43, llc_miss_BW: 43
L2_PA_ratio set to: 146
TH_L2PA: 106, l2miss_BW: 43, llc_miss_BW: 43
L2_PA_ratio set to: 146
TH_L2PA: 106, l2miss_BW: 42, llc_miss_BW: 42
L2_PA_ratio set to: 152
TH_L2PA: 106, l2miss_BW: 44, llc_miss_BW: 44
L2_PA_ratio set to: 140
TH_L2PA: 106, l2miss_BW: 43, llc_miss_BW: 43
L2_PA_ratio set to: 146
TH_L2PA: 106, l2miss_BW: 45, llc_miss_BW: 45
L2_PA_ratio set to: 135
TH_L2PA: 106, l2miss_BW: 44, llc_miss_BW: 44
L2_PA_ratio set to: 140
TH_L2PA: 106, l2miss_BW: 43, llc_miss_BW: 43
L2_PA_ratio set to: 146
TH_L2PA: 106, l2miss_BW: 44, llc_miss_BW: 44
L2_PA_ratio set to: 140
TH_L2PA: 106, l2miss_BW: 45, llc_miss_BW: 45
L2_PA_ratio set to: 135
TH_L2PA: 106, l2miss_BW: 44, llc_miss_BW: 44
L2_PA_ratio set to: 140
TH_L2PA: 106, l2miss_BW: 43, llc_miss_BW: 43
L2_PA_ratio set to: 146
TH_L2PA: 106, l2miss_BW: 44, llc_miss_BW: 44
L2_PA_ratio set to: 140
TH_L2PA: 106, l2miss_BW: 43, llc_miss_BW: 43
L2_PA_ratio set to: 146
TH_L2PA: 106, l2miss_BW: 42, llc_miss_BW: 42
L2_PA_ratio set to: 152
TH_L2PA: 106, l2miss_BW: 44, llc_miss_BW: 44
L2_PA_ratio set to: 140
TH_L2PA: 106, l2miss_BW: 44, llc_miss_BW: 44
L2_PA_ratio set to: 140
TH_L2PA: 106, l2miss_BW: 44, llc_miss_BW: 44
L2_PA_ratio set to: 140
TH_L2PA: 106, l2miss_BW: 44, llc_miss_BW: 44
L2_PA_ratio set to: 140
TH_L2PA: 106, l2miss_BW: 43, llc_miss_BW: 43
L2_PA_ratio set to: 146
TH_L2PA: 106, l2miss_BW: 44, llc_miss_BW: 44
L2_PA_ratio set to: 140
TH_L2PA: 106, l2miss_BW: 43, llc_miss_BW: 43
L2_PA_ratio set to: 146
TH_L2PA: 106, l2miss_BW: 44, llc_miss_BW: 44
L2_PA_ratio set to: 140
TH_L2PA: 106, l2miss_BW: 42, llc_miss_BW: 42
L2_PA_ratio set to: 152
TH_L2PA: 106, l2miss_BW: 43, llc_miss_BW: 43
L2_PA_ratio set to: 146
TH_L2PA: 106, l2miss_BW: 45, llc_miss_BW: 45
L2_PA_ratio set to: 135
TH_L2PA: 106, l2miss_BW: 43, llc_miss_BW: 43
L2_PA_ratio set to: 146
TH_L2PA: 106, l2miss_BW: 44, llc_miss_BW: 44
L2_PA_ratio set to: 140
[...]
PAM Allow Rate: 146%
Heartbeat CPU 8 instructions: 70000005 cycles: 196346555 heartbeat IPC: 0.351795 cumulative IPC: 0.351931 (Simulation time: 2 hr 40 min 7 sec) 
PAM Allow Rate: 146%
TH_L2PA: 106, l2miss_BW: 42, llc_miss_BW: 42
L2_PA_ratio set to: 152
TH_L2PA: 106, l2miss_BW: 44, llc_miss_BW: 44
L2_PA_ratio set to: 140
TH_L2PA: 106, l2miss_BW: 43, llc_miss_BW: 43
L2_PA_ratio set to: 146
TH_L2PA: 106, l2miss_BW: 45, llc_miss_BW: 45
L2_PA_ratio set to: 135
TH_L2PA: 106, l2miss_BW: 44, llc_miss_BW: 44
L2_PA_ratio set to: 140
TH_L2PA: 106, l2miss_BW: 44, llc_miss_BW: 44
L2_PA_ratio set to: 140
TH_L2PA: 106, l2miss_BW: 44, llc_miss_BW: 44
L2_PA_ratio set to: 140
TH_L2PA: 106, l2miss_BW: 44, llc_miss_BW: 44
L2_PA_ratio set to: 140
TH_L2PA: 106, l2miss_BW: 42, llc_miss_BW: 42
L2_PA_ratio set to: 152
TH_L2PA: 106, l2miss_BW: 43, llc_miss_BW: 43
L2_PA_ratio set to: 146
TH_L2PA: 106, l2miss_BW: 43, llc_miss_BW: 43
L2_PA_ratio set to: 146
TH_L2PA: 106, l2miss_BW: 42, llc_miss_BW: 42
L2_PA_ratio set to: 152
Heartbeat CPU 11 instructions: 70000005 cycles: 197591047 heartbeat IPC: 0.349806 cumulative IPC: 0.349712 (Simulation time: 2 hr 41 min 8 sec) 
PAM Allow Rate: 152%
TH_L2PA: 106, l2miss_BW: 42, llc_miss_BW: 42
L2_PA_ratio set to: 152
TH_L2PA: 106, l2miss_BW: 44, llc_miss_BW: 44
L2_PA_ratio set to: 140
TH_L2PA: 106, l2miss_BW: 44, llc_miss_BW: 44
L2_PA_ratio set to: 140
TH_L2PA: 106, l2miss_BW: 43, llc_miss_BW: 43
L2_PA_ratio set to: 146
TH_L2PA: 106, l2miss_BW: 43, llc_miss_BW: 43
L2_PA_ratio set to: 146
TH_L2PA: 106, l2miss_BW: 44, llc_miss_BW: 44
L2_PA_ratio set to: 140
TH_L2PA: 106, l2miss_BW: 43, llc_miss_BW: 43
L2_PA_ratio set to: 146
TH_L2PA: 106, l2miss_BW: 44, llc_miss_BW: 44
L2_PA_ratio set to: 140
TH_L2PA: 106, l2miss_BW: 43, llc_miss_BW: 43
L2_PA_ratio set to: 146
TH_L2PA: 106, l2miss_BW: 44, llc_miss_BW: 44
L2_PA_ratio set to: 140
TH_L2PA: 106, l2miss_BW: 44, llc_miss_BW: 44
L2_PA_ratio set to: 140
TH_L2PA: 106, l2miss_BW: 43, llc_miss_BW: 43
L2_PA_ratio set to: 146
TH_L2PA: 106, l2miss_BW: 43, llc_miss_BW: 43
L2_PA_ratio set to: 146
TH_L2PA: 106, l2miss_BW: 44, llc_miss_BW: 44
L2_PA_ratio set to: 140
TH_L2PA: 106, l2miss_BW: 44, llc_miss_BW: 44
L2_PA_ratio set to: 140
TH_L2PA: 106, l2miss_BW: 43, llc_miss_BW: 43
L2_PA_ratio set to: 146
TH_L2PA: 106, l2miss_BW: 43, llc_miss_BW: 43
L2_PA_ratio set to: 146
TH_L2PA: 106, l2miss_BW: 44, llc_miss_BW: 44
L2_PA_ratio set to: 140
TH_L2PA: 106, l2miss_BW: 44, llc_miss_BW: 44
L2_PA_ratio set to: 140
TH_L2PA: 106, l2miss_BW: 42, llc_miss_BW: 42
L2_PA_ratio set to: 152
TH_L2PA: 106, l2miss_BW: 44, llc_miss_BW: 44
L2_PA_ratio set to: 140
TH_L2PA: 106, l2miss_BW: 42, llc_miss_BW: 42
L2_PA_ratio set to: 152
TH_L2PA: 106, l2miss_BW: 45, llc_miss_BW: 45
L2_PA_ratio set to: 135
TH_L2PA: 106, l2miss_BW: 44, llc_miss_BW: 44
L2_PA_ratio set to: 140
TH_L2PA: 106, l2miss_BW: 46, llc_miss_BW: 46
L2_PA_ratio set to: 130
TH_L2PA: 106, l2miss_BW: 44, llc_miss_BW: 44
L2_PA_ratio set to: 140
TH_L2PA: 106, l2miss_BW: 44, llc_miss_BW: 44
L2_PA_ratio set to: 140
TH_L2PA: 106, l2miss_BW: 44, llc_miss_BW: 44
L2_PA_ratio set to: 140
TH_L2PA: 106, l2miss_BW: 43, llc_miss_BW: 43
L2_PA_ratio set to: 146
TH_L2PA: 106, l2miss_BW: 44, llc_miss_BW: 44
L2_PA_ratio set to: 140
TH_L2PA: 106, l2miss_BW: 44, llc_miss_BW: 44
L2_PA_ratio set to: 140
TH_L2PA: 106, l2miss_BW: 44, llc_miss_BW: 44
L2_PA_ratio set to: 140
TH_L2PA: 106, l2miss_BW: 43, llc_miss_BW: 43
L2_PA_ratio set to: 146
TH_L2PA: 106, l2miss_BW: 43, llc_miss_BW: 43
L2_PA_ratio set to: 146
TH_L2PA: 106, l2miss_BW: 43, llc_miss_BW: 43
L2_PA_ratio set to: 146
TH_L2PA: 106, l2miss_BW: 44, llc_miss_BW: 44
L2_PA_ratio set to: 140
TH_L2PA: 106, l2miss_BW: 43, llc_miss_BW: 43
L2_PA_ratio set to: 146
TH_L2PA: 106, l2miss_BW: 44, llc_miss_BW: 44
L2_PA_ratio set to: 140
TH_L2PA: 106, l2miss_BW: 44, llc_miss_BW: 44
L2_PA_ratio set to: 140
TH_L2PA: 106, l2miss_BW: 44, llc_miss_BW: 44
L2_PA_ratio set to: 140
TH_L2PA: 106, l2miss_BW: 43, llc_miss_BW: 43
L2_PA_ratio set to: 146
TH_L2PA: 106, l2miss_BW: 44, llc_miss_BW: 44
L2_PA_ratio set to: 140
TH_L2PA: 106, l2miss_BW: 44, llc_miss_BW: 44
L2_PA_ratio set to: 140
TH_L2PA: 106, l2miss_BW: 44, llc_miss_BW: 44
L2_PA_ratio set to: 140
TH_L2PA: 106, l2miss_BW: 43, llc_miss_BW: 43
L2_PA_ratio set to: 146
TH_L2PA: 106, l2miss_BW: 44, llc_miss_BW: 44
L2_PA_ratio set to: 140
TH_L2PA: 106, l2miss_BW: 43, llc_miss_BW: 43
L2_PA_ratio set to: 146
TH_L2PA: 106, l2miss_BW: 42, llc_miss_BW: 42
L2_PA_ratio set to: 152
TH_L2PA: 106, l2miss_BW: 43, llc_miss_BW: 43
L2_PA_ratio set to: 146
TH_L2PA: 106, l2miss_BW: 44, llc_miss_BW: 44
L2_PA_ratio set to: 140
TH_L2PA: 106, l2miss_BW: 43, llc_miss_BW: 43
L2_PA_ratio set to: 146
TH_L2PA: 106, l2miss_BW: 43, llc_miss_BW: 43
L2_PA_ratio set to: 146
TH_L2PA: 106, l2miss_BW: 44, llc_miss_BW: 44
L2_PA_ratio set to: 140
TH_L2PA: 106, l2miss_BW: 43, llc_miss_BW: 43
L2_PA_ratio set to: 146
TH_L2PA: 106, l2miss_BW: 43, llc_miss_BW: 43
L2_PA_ratio set to: 146
TH_L2PA: 106, l2miss_BW: 43, llc_miss_BW: 43
L2_PA_ratio set to: 146
TH_L2PA: 106, l2miss_BW: 43, llc_miss_BW: 43
L2_PA_ratio set to: 146
TH_L2PA: 106, l2miss_BW: 43, llc_miss_BW: 43
L2_PA_ratio set to: 146
TH_L2PA: 106, l2miss_BW: 44, llc_miss_BW: 44
L2_PA_ratio set to: 140
TH_L2PA: 106, l2miss_BW: 42, llc_miss_BW: 42
L2_PA_ratio set to: 152
TH_L2PA: 106, l2miss_BW: 43, llc_miss_BW: 43
L2_PA_ratio set to: 146
TH_L2PA: 106, l2miss_BW: 44, llc_miss_BW: 44
L2_PA_ratio set to: 140
TH_L2PA: 106, l2miss_BW: 44, llc_miss_BW: 44
L2_PA_ratio set to: 140
TH_L2PA: 106, l2miss_BW: 42, llc_miss_BW: 42
L2_PA_ratio set to: 152
TH_L2PA: 106, l2miss_BW: 43, llc_miss_BW: 43
L2_PA_ratio set to: 146
TH_L2PA: 106, l2miss_BW: 45, llc_miss_BW: 45
L2_PA_ratio set to: 135
TH_L2PA: 106, l2miss_BW: 44, llc_miss_BW: 44
L2_PA_ratio set to: 140
TH_L2PA: 106, l2miss_BW: 43, llc_miss_BW: 43
L2_PA_ratio set to: 146
TH_L2PA: 106, l2miss_BW: 44, llc_miss_BW: 44
L2_PA_ratio set to: 140
TH_L2PA: 106, l2miss_BW: 43, llc_miss_BW: 43
L2_PA_ratio set to: 146
TH_L2PA: 106, l2miss_BW: 44, llc_miss_BW: 44
L2_PA_ratio set to: 140
TH_L2PA: 106, l2miss_BW: 44, llc_miss_BW: 44
L2_PA_ratio set to: 140
TH_L2PA: 106, l2miss_BW: 43, llc_miss_BW: 43
L2_PA_ratio set to: 146
TH_L2PA: 106, l2miss_BW: 42, llc_miss_BW: 42
L2_PA_ratio set to: 152
TH_L2PA: 106, l2miss_BW: 43, llc_miss_BW: 43
L2_PA_ratio set to: 146
TH_L2PA: 106, l2miss_BW: 42, llc_miss_BW: 42
L2_PA_ratio set to: 152
TH_L2PA: 106, l2miss_BW: 43, llc_miss_BW: 43
L2_PA_ratio set to: 146
TH_L2PA: 106, l2miss_BW: 44, llc_miss_BW: 44
L2_PA_ratio set to: 140
TH_L2PA: 106, l2miss_BW: 45, llc_miss_BW: 45
L2_PA_ratio set to: 135
TH_L2PA: 106, l2miss_BW: 44, llc_miss_BW: 44
L2_PA_ratio set to: 140
TH_L2PA: 106, l2miss_BW: 43, llc_miss_BW: 43
L2_PA_ratio set to: 146
TH_L2PA: 106, l2miss_BW: 42, llc_miss_BW: 42
L2_PA_ratio set to: 152
TH_L2PA: 106, l2miss_BW: 43, llc_miss_BW: 43
L2_PA_ratio set to: 146
TH_L2PA: 106, l2miss_BW: 44, llc_miss_BW: 44
L2_PA_ratio set to: 140
TH_L2PA: 106, l2miss_BW: 44, llc_miss_BW: 44
L2_PA_ratio set to: 140
TH_L2PA: 106, l2miss_BW: 43, llc_miss_BW: 43
L2_PA_ratio set to: 146
TH_L2PA: 106, l2miss_BW: 42, llc_miss_BW: 42
L2_PA_ratio set to: 152
TH_L2PA: 106, l2miss_BW: 43, llc_miss_BW: 43
L2_PA_ratio set to: 146
TH_L2PA: 106, l2miss_BW: 44, llc_miss_BW: 44
L2_PA_ratio set to: 140
TH_L2PA: 106, l2miss_BW: 44, llc_miss_BW: 44
L2_PA_ratio set to: 140
TH_L2PA: 106, l2miss_BW: 43, llc_miss_BW: 43
L2_PA_ratio set to: 146
TH_L2PA: 106, l2miss_BW: 43, llc_miss_BW: 43
L2_PA_ratio set to: 146
TH_L2PA: 106, l2miss_BW: 43, llc_miss_BW: 43
L2_PA_ratio set to: 146
TH_L2PA: 106, l2miss_BW: 44, llc_miss_BW: 44
L2_PA_ratio set to: 140
TH_L2PA: 106, l2miss_BW: 43, llc_miss_BW: 43
L2_PA_ratio set to: 146
TH_L2PA: 106, l2miss_BW: 44, llc_miss_BW: 44
L2_PA_ratio set to: 140
TH_L2PA: 106, l2miss_BW: 44, llc_miss_BW: 44
L2_PA_ratio set to: 140
TH_L2PA: 106, l2miss_BW: 45, llc_miss_BW: 45
L2_PA_ratio set to: 135
TH_L2PA: 106, l2miss_BW: 44, llc_miss_BW: 44
L2_PA_ratio set to: 140
TH_L2PA: 106, l2miss_BW: 43, llc_miss_BW: 43
L2_PA_ratio set to: 146
TH_L2PA: 106, l2miss_BW: 43, llc_miss_BW: 43
L2_PA_ratio set to: 146
TH_L2PA: 106, l2miss_BW: 44, llc_miss_BW: 44
L2_PA_ratio set to: 140
TH_L2PA: 106, l2miss_BW: 44, llc_miss_BW: 44
L2_PA_ratio set to: 140
TH_L2PA: 106, l2miss_BW: 44, llc_miss_BW: 44
L2_PA_ratio set to: 140
TH_L2PA: 106, l2miss_BW: 45, llc_miss_BW: 45
L2_PA_ratio set to: 135
TH_L2PA: 106, l2miss_BW: 43, llc_miss_BW: 43
L2_PA_ratio set to: 146
TH_L2PA: 106, l2miss_BW: 43, llc_miss_BW: 43
L2_PA_ratio set to: 146
TH_L2PA: 106, l2miss_BW: 42, llc_miss_BW: 42
L2_PA_ratio set to: 152
TH_L2PA: 106, l2miss_BW: 44, llc_miss_BW: 44
L2_PA_ratio set to: 140
TH_L2PA: 106, l2miss_BW: 44, llc_miss_BW: 44
L2_PA_ratio set to: 140
TH_L2PA: 106, l2miss_BW: 42, llc_miss_BW: 42
L2_PA_ratio set to: 152
TH_L2PA: 106, l2miss_BW: 44, llc_miss_BW: 44
L2_PA_ratio set to: 140
TH_L2PA: 106, l2miss_BW: 45, llc_miss_BW: 45
L2_PA_ratio set to: 135
TH_L2PA: 106, l2miss_BW: 44, llc_miss_BW: 44
L2_PA_ratio set to: 140
TH_L2PA: 106, l2miss_BW: 43, llc_miss_BW: 43
L2_PA_ratio set to: 146
TH_L2PA: 106, l2miss_BW: 44, llc_miss_BW: 44
L2_PA_ratio set to: 140
TH_L2PA: 106, l2miss_BW: 44, llc_miss_BW: 44
L2_PA_ratio set to: 140
TH_L2PA: 106, l2miss_BW: 44, llc_miss_BW: 44
L2_PA_ratio set to: 140
TH_L2PA: 106, l2miss_BW: 45, llc_miss_BW: 45
L2_PA_ratio set to: 135
TH_L2PA: 106, l2miss_BW: 44, llc_miss_BW: 44
L2_PA_ratio set to: 140
TH_L2PA: 106, l2miss_BW: 42, llc_miss_BW: 42
L2_PA_ratio set to: 152
TH_L2PA: 106, l2miss_BW: 43, llc_miss_BW: 43
L2_PA_ratio set to: 146
TH_L2PA: 106, l2miss_BW: 44, llc_miss_BW: 44
L2_PA_ratio set to: 140
TH_L2PA: 106, l2miss_BW: 44, llc_miss_BW: 44
L2_PA_ratio set to: 140
TH_L2PA: 106, l2miss_BW: 44, llc_miss_BW: 44
L2_PA_ratio set to: 140
TH_L2PA: 106, l2miss_BW: 44, llc_miss_BW: 44
L2_PA_ratio set to: 140
TH_L2PA: 106, l2miss_BW: 44, llc_miss_BW: 44
L2_PA_ratio set to: 140
TH_L2PA: 106, l2miss_BW: 43, llc_miss_BW: 43
L2_PA_ratio set to: 146
TH_L2PA: 106, l2miss_BW: 44, llc_miss_BW: 44
L2_PA_ratio set to: 140
TH_L2PA: 106, l2miss_BW: 44, llc_miss_BW: 44
L2_PA_ratio set to: 140
TH_L2PA: 106, l2miss_BW: 44, llc_miss_BW: 44
L2_PA_ratio set to: 140
TH_L2PA: 106, l2miss_BW: 44, llc_miss_BW: 44
L2_PA_ratio set to: 140
TH_L2PA: 106, l2miss_BW: 44, llc_miss_BW: 44
L2_PA_ratio set to: 140
TH_L2PA: 106, l2miss_BW: 42, llc_miss_BW: 42
L2_PA_ratio set to: 152
TH_L2PA: 106, l2miss_BW: 44, llc_miss_BW: 44
L2_PA_ratio set to: 140
TH_L2PA: 106, l2miss_BW: 44, llc_miss_BW: 44
L2_PA_ratio set to: 140
TH_L2PA: 106, l2miss_BW: 43, llc_miss_BW: 43
L2_PA_ratio set to: 146
TH_L2PA: 106, l2miss_BW: 43, llc_miss_BW: 43
L2_PA_ratio set to: 146
TH_L2PA: 106, l2miss_BW: 43, llc_miss_BW: 43
L2_PA_ratio set to: 146
TH_L2PA: 106, l2miss_BW: 43, llc_miss_BW: 43
L2_PA_ratio set to: 146
TH_L2PA: 106, l2miss_BW: 43, llc_miss_BW: 43
L2_PA_ratio set to: 146
TH_L2PA: 106, l2miss_BW: 43, llc_miss_BW: 43
L2_PA_ratio set to: 146
TH_L2PA: 106, l2miss_BW: 44, llc_miss_BW: 44
L2_PA_ratio set to: 140
TH_L2PA: 106, l2miss_BW: 43, llc_miss_BW: 43
L2_PA_ratio set to: 146
TH_L2PA: 106, l2miss_BW: 43, llc_miss_BW: 43
L2_PA_ratio set to: 146
TH_L2PA: 106, l2miss_BW: 44, llc_miss_BW: 44
L2_PA_ratio set to: 140
TH_L2PA: 106, l2miss_BW: 44, llc_miss_BW: 44
L2_PA_ratio set to: 140
TH_L2PA: 106, l2miss_BW: 44, llc_miss_BW: 44
L2_PA_ratio set to: 140
TH_L2PA: 106, l2miss_BW: 43, llc_miss_BW: 43
L2_PA_ratio set to: 146
TH_L2PA: 106, l2miss_BW: 43, llc_miss_BW: 43
L2_PA_ratio set to: 146
TH_L2PA: 106, l2miss_BW: 45, llc_miss_BW: 45
L2_PA_ratio set to: 135
TH_L2PA: 106, l2miss_BW: 44, llc_miss_BW: 44
L2_PA_ratio set to: 140
TH_L2PA: 106, l2miss_BW: 43, llc_miss_BW: 43
L2_PA_ratio set to: 146
TH_L2PA: 106, l2miss_BW: 44, llc_miss_BW: 44
L2_PA_ratio set to: 140
TH_L2PA: 106, l2miss_BW: 43, llc_miss_BW: 43
L2_PA_ratio set to: 146
TH_L2PA: 106, l2miss_BW: 44, llc_miss_BW: 44
L2_PA_ratio set to: 140
TH_L2PA: 106, l2miss_BW: 46, llc_miss_BW: 46
L2_PA_ratio set to: 130
TH_L2PA: 106, l2miss_BW: 44, llc_miss_BW: 44
L2_PA_ratio set to: 140
TH_L2PA: 106, l2miss_BW: 43, llc_miss_BW: 43
L2_PA_ratio set to: 146
TH_L2PA: 106, l2miss_BW: 42, llc_miss_BW: 42
L2_PA_ratio set to: 152
TH_L2PA: 106, l2miss_BW: 43, llc_miss_BW: 43
L2_PA_ratio set to: 146
TH_L2PA: 106, l2miss_BW: 43, llc_miss_BW: 43
L2_PA_ratio set to: 146
TH_L2PA: 106, l2miss_BW: 43, llc_miss_BW: 43
L2_PA_ratio set to: 146
TH_L2PA: 106, l2miss_BW: 44, llc_miss_BW: 44
L2_PA_ratio set to: 140
TH_L2PA: 106, l2miss_BW: 44, llc_miss_BW: 44
L2_PA_ratio set to: 140
TH_L2PA: 106, l2miss_BW: 44, llc_miss_BW: 44
L2_PA_ratio set to: 140
TH_L2PA: 106, l2miss_BW: 44, llc_miss_BW: 44
L2_PA_ratio set to: 140
TH_L2PA: 106, l2miss_BW: 43, llc_miss_BW: 43
L2_PA_ratio set to: 146
TH_L2PA: 106, l2miss_BW: 43, llc_miss_BW: 43
L2_PA_ratio set to: 146
TH_L2PA: 106, l2miss_BW: 44, llc_miss_BW: 44
L2_PA_ratio set to: 140
TH_L2PA: 106, l2miss_BW: 43, llc_miss_BW: 43
L2_PA_ratio set to: 146
TH_L2PA: 106, l2miss_BW: 43, llc_miss_BW: 43
L2_PA_ratio set to: 146
TH_L2PA: 106, l2miss_BW: 45, llc_miss_BW: 45
L2_PA_ratio set to: 135
TH_L2PA: 106, l2miss_BW: 43, llc_miss_BW: 43
L2_PA_ratio set to: 146
TH_L2PA: 106, l2miss_BW: 43, llc_miss_BW: 43
L2_PA_ratio set to: 146
TH_L2PA: 106, l2miss_BW: 45, llc_miss_BW: 45
L2_PA_ratio set to: 135
TH_L2PA: 106, l2miss_BW: 44, llc_miss_BW: 44
L2_PA_ratio set to: 140
TH_L2PA: 106, l2miss_BW: 43, llc_miss_BW: 43
L2_PA_ratio set to: 146
Heartbeat CPU 1 instructions: 80000005 cycles: 215388143 heartbeat IPC: 0.367397 cumulative IPC: 0.367267 (Simulation time: 2 hr 55 min 38 sec) 
PAM Allow Rate: 146%
TH_L2PA: 106, l2miss_BW: 43, llc_miss_BW: 43
L2_PA_ratio set to: 146
TH_L2PA: 106, l2miss_BW: 44, llc_miss_BW: 44
L2_PA_ratio set to: 140
TH_L2PA: 106, l2miss_BW: 43, llc_miss_BW: 43
L2_PA_ratio set to: 146
TH_L2PA: 106, l2miss_BW: 43, llc_miss_BW: 43
L2_PA_ratio set to: 146
TH_L2PA: 106, l2miss_BW: 43, llc_miss_BW: 43
L2_PA_ratio set to: 146
TH_L2PA: 106, l2miss_BW: 42, llc_miss_BW: 42
L2_PA_ratio set to: 152
TH_L2PA: 106, l2miss_BW: 42, llc_miss_BW: 42
L2_PA_ratio set to: 152
TH_L2PA: 106, l2miss_BW: 44, llc_miss_BW: 44
L2_PA_ratio set to: 140
TH_L2PA: 106, l2miss_BW: 44, llc_miss_BW: 44
L2_PA_ratio set to: 140
TH_L2PA: 106, l2miss_BW: 43, llc_miss_BW: 43
L2_PA_ratio set to: 146
TH_L2PA: 106, l2miss_BW: 44, llc_miss_BW: 44
L2_PA_ratio set to: 140
TH_L2PA: 106, l2miss_BW: 43, llc_miss_BW: 43
L2_PA_ratio set to: 146
TH_L2PA: 106, l2miss_BW: 43, llc_miss_BW: 43
L2_PA_ratio set to: 146
TH_L2PA: 106, l2miss_BW: 44, llc_miss_BW: 44
L2_PA_ratio set to: 140
TH_L2PA: 106, l2miss_BW: 43, llc_miss_BW: 43
L2_PA_ratio set to: 146
TH_L2PA: 106, l2miss_BW: 44, llc_miss_BW: 44
L2_PA_ratio set to: 140
TH_L2PA: 106, l2miss_BW: 44, llc_miss_BW: 44
L2_PA_ratio set to: 140
TH_L2PA: 106, l2miss_BW: 43, llc_miss_BW: 43
L2_PA_ratio set to: 146
TH_L2PA: 106, l2miss_BW: 43, llc_miss_BW: 43
L2_PA_ratio set to: 146
TH_L2PA: 106, l2miss_BW: 42, llc_miss_BW: 42
L2_PA_ratio set to: 152
TH_L2PA: 106, l2miss_BW: 43, llc_miss_BW: 43
L2_PA_ratio set to: 146
TH_L2PA: 106, l2miss_BW: 42, llc_miss_BW: 42
L2_PA_ratio set to: 152
TH_L2PA: 106, l2miss_BW: 43, llc_miss_BW: 43
L2_PA_ratio set to: 146
TH_L2PA: 106, l2miss_BW: 43, llc_miss_BW: 43
L2_PA_ratio set to: 146
TH_L2PA: 106, l2miss_BW: 44, llc_miss_BW: 44
L2_PA_ratio set to: 140
TH_L2PA: 106, l2miss_BW: 43, llc_miss_BW: 43
L2_PA_ratio set to: 146
TH_L2PA: 106, l2miss_BW: 44, llc_miss_BW: 44
L2_PA_ratio set to: 140
TH_L2PA: 106, l2miss_BW: 43, llc_miss_BW: 43
L2_PA_ratio set to: 146
TH_L2PA: 106, l2miss_BW: 44, llc_miss_BW: 44
L2_PA_ratio set to: 140
TH_L2PA: 106, l2miss_BW: 44, llc_miss_BW: 44
L2_PA_ratio set to: 140
TH_L2PA: 106, l2miss_BW: 43, llc_miss_BW: 43
L2_PA_ratio set to: 146
TH_L2PA: 106, l2miss_BW: 43, llc_miss_BW: 43
L2_PA_ratio set to: 146
TH_L2PA: 106, l2miss_BW: 44, llc_miss_BW: 44
L2_PA_ratio set to: 140
Heartbeat CPU 2 instructions: 80000005 cycles: 218666113 heartbeat IPC: 0.361295 cumulative IPC: 0.361754 (Simulation time: 2 hr 58 min 18 sec) 
PAM Allow Rate: 140%
Heartbeat CPU 5 instructions: 80000005 cycles: 218686270 heartbeat IPC: 0.361671 cumulative IPC: 0.36172 (Simulation time: 2 hr 58 min 19 sec) 
PAM Allow Rate: 140%
TH_L2PA: 106, l2miss_BW: 42, llc_miss_BW: 42
L2_PA_ratio set to: 152
Heartbeat CPU 0 instructions: 80000005 cycles: 218708598 heartbeat IPC: 0.362218 cumulative IPC: 0.361683 (Simulation time: 2 hr 58 min 20 sec) 
PAM Allow Rate: 152%
TH_L2PA: 106, l2miss_BW: 44, llc_miss_BW: 44
L2_PA_ratio set to: 140
TH_L2PA: 106, l2miss_BW: 44, llc_miss_BW: 44
L2_PA_ratio set to: 140
TH_L2PA: 106, l2miss_BW: 43, llc_miss_BW: 43
L2_PA_ratio set to: 146
TH_L2PA: 106, l2miss_BW: 43, llc_miss_BW: 43
L2_PA_ratio set to: 146
TH_L2PA: 106, l2miss_BW: 43, llc_miss_BW: 43
L2_PA_ratio set to: 146
TH_L2PA: 106, l2miss_BW: 43, llc_miss_BW: 43
L2_PA_ratio set to: 146
TH_L2PA: 106, l2miss_BW: 44, llc_miss_BW: 44
L2_PA_ratio set to: 140
TH_L2PA: 106, l2miss_BW: 43, llc_miss_BW: 43
L2_PA_ratio set to: 146
TH_L2PA: 106, l2miss_BW: 45, llc_miss_BW: 45
L2_PA_ratio set to: 135
TH_L2PA: 106, l2miss_BW: 43, llc_miss_BW: 43
L2_PA_ratio set to: 146
TH_L2PA: 106, l2miss_BW: 44, llc_miss_BW: 44
L2_PA_ratio set to: 140
TH_L2PA: 106, l2miss_BW: 44, llc_miss_BW: 44
L2_PA_ratio set to: 140
TH_L2PA: 106, l2miss_BW: 43, llc_miss_BW: 43
L2_PA_ratio set to: 146
TH_L2PA: 106, l2miss_BW: 44, llc_miss_BW: 44
L2_PA_ratio set to: 140
TH_L2PA: 106, l2miss_BW: 45, llc_miss_BW: 45
L2_PA_ratio set to: 135
TH_L2PA: 106, l2miss_BW: 43, llc_miss_BW: 43
L2_PA_ratio set to: 146
TH_L2PA: 106, l2miss_BW: 43, llc_miss_BW: 43
L2_PA_ratio set to: 146
TH_L2PA: 106, l2miss_BW: 44, llc_miss_BW: 44
L2_PA_ratio set to: 140
TH_L2PA: 106, l2miss_BW: 43, llc_miss_BW: 43
L2_PA_ratio set to: 146
TH_L2PA: 106, l2miss_BW: 42, llc_miss_BW: 42
L2_PA_ratio set to: 152
TH_L2PA: 106, l2miss_BW: 43, llc_miss_BW: 43
L2_PA_ratio set to: 146
TH_L2PA: 106, l2miss_BW: 44, llc_miss_BW: 44
L2_PA_ratio set to: 140
TH_L2PA: 106, l2miss_BW: 44, llc_miss_BW: 44
L2_PA_ratio set to: 140
TH_L2PA: 106, l2miss_BW: 44, llc_miss_BW: 44
L2_PA_ratio set to: 140
TH_L2PA: 106, l2miss_BW: 44, llc_miss_BW: 44
L2_PA_ratio set to: 140
TH_L2PA: 106, l2miss_BW: 42, llc_miss_BW: 42
L2_PA_ratio set to: 152
TH_L2PA: 106, l2miss_BW: 44, llc_miss_BW: 44
L2_PA_ratio set to: 140
TH_L2PA: 106, l2miss_BW: 45, llc_miss_BW: 45
L2_PA_ratio set to: 135
TH_L2PA: 106, l2miss_BW: 43, llc_miss_BW: 43
L2_PA_ratio set to: 146
TH_L2PA: 106, l2miss_BW: 43, llc_miss_BW: 43
L2_PA_ratio set to: 146
TH_L2PA: 106, l2miss_BW: 43, llc_miss_BW: 43
L2_PA_ratio set to: 146
Heartbeat CPU 9 instructions: 80000005 cycles: 221830868 heartbeat IPC: 0.356019 cumulative IPC: 0.356586 (Simulation time: 3 hr 0 min 52 sec) 
PAM Allow Rate: 146%
TH_L2PA: 106, l2miss_BW: 45, llc_miss_BW: 45
L2_PA_ratio set to: 135
Heartbeat CPU 4 instructions: 80000005 cycles: 221911384 heartbeat IPC: 0.35628 cumulative IPC: 0.356457 (Simulation time: 3 hr 0 min 56 sec) 
PAM Allow Rate: 135%
Heartbeat CPU 6 instructions: 80000005 cycles: 221934377 heartbeat IPC: 0.35794 cumulative IPC: 0.35642 (Simulation time: 3 hr 0 min 57 sec) 
PAM Allow Rate: 135%
Heartbeat CPU 3 instructions: 80000005 cycles: 221937295 heartbeat IPC: 0.356783 cumulative IPC: 0.356416 (Simulation time: 3 hr 0 min 57 sec) 
PAM Allow Rate: 135%
TH_L2PA: 106, l2miss_BW: 42, llc_miss_BW: 42
L2_PA_ratio set to: 152
TH_L2PA: 106, l2miss_BW: 43, llc_miss_BW: 43
L2_PA_ratio set to: 146
TH_L2PA: 106, l2miss_BW: 43, llc_miss_BW: 43
L2_PA_ratio set to: 146
TH_L2PA: 106, l2miss_BW: 43, llc_miss_BW: 43
L2_PA_ratio set to: 146
TH_L2PA: 106, l2miss_BW: 44, llc_miss_BW: 44
L2_PA_ratio set to: 140
TH_L2PA: 106, l2miss_BW: 45, llc_miss_BW: 45
L2_PA_ratio set to: 135
TH_L2PA: 106, l2miss_BW: 43, llc_miss_BW: 43
L2_PA_ratio set to: 146
TH_L2PA: 106, l2miss_BW: 43, llc_miss_BW: 43
L2_PA_ratio set to: 146
